data_CENJIQ_clean

_audit_creation_method RASPA-1.0
_audit_creation_date 2025-9-8
_audit_author_name ''

_cell_length_a    33.6256
_cell_length_b    33.6256
_cell_length_c    33.6256
_cell_angle_alpha 105.664
_cell_angle_beta  105.664
_cell_angle_gamma 105.664
_cell_volume      32748.8

_symmetry_cell_setting          triclinic
_symmetry_space_group_name_Hall 'P 1'
_symmetry_space_group_name_H-M  'P 1'
_symmetry_Int_Tables_number     1

_symmetry_equiv_pos_as_xyz 'x,y,z'

loop_
_atom_site_label
_atom_site_type_symbol
_atom_site_fract_x
_atom_site_fract_y
_atom_site_fract_z
_atom_site_charge
Cu       Cu     0.217350000000     0.424960000000     0.306950000000     0.877      
Cu       Cu     0.185660000000     0.383525000000     0.195035000000     0.87       
Cu       Cu     0.143880000000     0.455970000000     0.242955000000     0.88       
Cu       Cu     0.306950000000     0.217350000000     0.424960000000     0.877      
Cu       Cu     0.195035000000     0.185660000000     0.383525000000     0.87       
Cu       Cu     0.242955000000     0.143880000000     0.455970000000     0.88       
Cu       Cu     0.424960000000     0.306950000000     0.217350000000     0.878      
Cu       Cu     0.383525000000     0.195035000000     0.185660000000     0.871      
Cu       Cu     0.455970000000     0.242955000000     0.143880000000     0.881      
Cu       Cu     0.282650000000     0.075040000000     0.193050000000     0.878      
Cu       Cu     0.314340000000     0.116475000000     0.304965000000     0.871      
Cu       Cu     0.356120000000     0.044030000000     0.257045000000     0.881      
Cu       Cu     0.193050000000     0.282650000000     0.075040000000     0.878      
Cu       Cu     0.304965000000     0.314340000000     0.116475000000     0.871      
Cu       Cu     0.257045000000     0.356120000000     0.044030000000     0.881      
Cu       Cu     0.075040000000     0.193050000000     0.282650000000     0.878      
Cu       Cu     0.116475000000     0.304965000000     0.314340000000     0.871      
Cu       Cu     0.044030000000     0.257045000000     0.356120000000     0.881      
H        H      0.288800000000     0.377950000000     0.325200000000    -0.001      
H        H      0.296250000000     0.323100000000     0.262800000000     0.071      
H        H      0.241800000000     0.319400000000     0.192400000000    -0.004      
H        H      0.129200000000     0.368900000000     0.094700000000    -0          
H        H      0.076650000000     0.407200000000     0.077600000000     0.069      
H        H      0.081200000000     0.455450000000     0.152300000000     0.002      
H        H      0.117200000000     0.006250000000     0.322000000000     0.002      
H        H      0.152800000000     0.012000000000     0.399300000000     0.07       
H        H      0.208150000000     0.475700000000     0.398250000000     0.003      
H        H      0.207100000000     0.325650000000     0.380900000000     0.068      
H        H      0.189400000000     0.359250000000     0.407600000000     0.072      
H        H      0.278300000000     0.372750000000     0.418750000000     0.098      
H        H      0.263300000000     0.411650000000     0.441200000000     0.108      
H        H      0.217600000000     0.456900000000     0.251450000000     0.097      
H        H      0.325200000000     0.288800000000     0.377950000000    -0.001      
H        H      0.262800000000     0.296250000000     0.323100000000     0.071      
H        H      0.192400000000     0.241800000000     0.319400000000    -0.004      
H        H      0.094700000000     0.129200000000     0.368900000000    -0          
H        H      0.077600000000     0.076650000000     0.407200000000     0.069      
H        H      0.152300000000     0.081200000000     0.455450000000     0.002      
H        H      0.322000000000     0.117200000000     0.006250000000     0.002      
H        H      0.399300000000     0.152800000000     0.012000000000     0.07       
H        H      0.398250000000     0.208150000000     0.475700000000     0.003      
H        H      0.380900000000     0.207100000000     0.325650000000     0.068      
H        H      0.407600000000     0.189400000000     0.359250000000     0.072      
H        H      0.418750000000     0.278300000000     0.372750000000     0.098      
H        H      0.441200000000     0.263300000000     0.411650000000     0.108      
H        H      0.251450000000     0.217600000000     0.456900000000     0.097      
H        H      0.377950000000     0.325200000000     0.288800000000    -0.001      
H        H      0.323100000000     0.262800000000     0.296250000000     0.071      
H        H      0.319400000000     0.192400000000     0.241800000000    -0.004      
H        H      0.368900000000     0.094700000000     0.129200000000    -0          
H        H      0.407200000000     0.077600000000     0.076650000000     0.069      
H        H      0.455450000000     0.152300000000     0.081200000000     0.002      
H        H      0.006250000000     0.322000000000     0.117200000000     0.002      
H        H      0.012000000000     0.399300000000     0.152800000000     0.07       
H        H      0.475700000000     0.398250000000     0.208150000000     0.003      
H        H      0.325650000000     0.380900000000     0.207100000000     0.068      
H        H      0.359250000000     0.407600000000     0.189400000000     0.072      
H        H      0.372750000000     0.418750000000     0.278300000000     0.098      
H        H      0.411650000000     0.441200000000     0.263300000000     0.108      
H        H      0.456900000000     0.251450000000     0.217600000000     0.097      
H        H      0.211200000000     0.122050000000     0.174800000000    -0.001      
H        H      0.203750000000     0.176900000000     0.237200000000     0.071      
H        H      0.258200000000     0.180600000000     0.307600000000    -0.004      
H        H      0.370800000000     0.131100000000     0.405300000000    -0          
H        H      0.423350000000     0.092800000000     0.422400000000     0.069      
H        H      0.418800000000     0.044550000000     0.347700000000     0.002      
H        H      0.382800000000     0.493750000000     0.178000000000     0.002      
H        H      0.347200000000     0.488000000000     0.100700000000     0.07       
H        H      0.291850000000     0.024300000000     0.101750000000     0.003      
H        H      0.292900000000     0.174350000000     0.119100000000     0.068      
H        H      0.310600000000     0.140750000000     0.092400000000     0.072      
H        H      0.221700000000     0.127250000000     0.081250000000     0.098      
H        H      0.236700000000     0.088350000000     0.058800000000     0.108      
H        H      0.282400000000     0.043100000000     0.248550000000     0.097      
H        H      0.174800000000     0.211200000000     0.122050000000    -0.001      
H        H      0.237200000000     0.203750000000     0.176900000000     0.071      
H        H      0.307600000000     0.258200000000     0.180600000000    -0.004      
H        H      0.405300000000     0.370800000000     0.131100000000    -0          
H        H      0.422400000000     0.423350000000     0.092800000000     0.069      
H        H      0.347700000000     0.418800000000     0.044550000000     0.002      
H        H      0.178000000000     0.382800000000     0.493750000000     0.002      
H        H      0.100700000000     0.347200000000     0.488000000000     0.07       
H        H      0.101750000000     0.291850000000     0.024300000000     0.003      
H        H      0.119100000000     0.292900000000     0.174350000000     0.068      
H        H      0.092400000000     0.310600000000     0.140750000000     0.072      
H        H      0.081250000000     0.221700000000     0.127250000000     0.098      
H        H      0.058800000000     0.236700000000     0.088350000000     0.108      
H        H      0.248550000000     0.282400000000     0.043100000000     0.097      
H        H      0.122050000000     0.174800000000     0.211200000000    -0.001      
H        H      0.176900000000     0.237200000000     0.203750000000     0.071      
H        H      0.180600000000     0.307600000000     0.258200000000    -0.004      
H        H      0.131100000000     0.405300000000     0.370800000000    -0          
H        H      0.092800000000     0.422400000000     0.423350000000     0.069      
H        H      0.044550000000     0.347700000000     0.418800000000     0.002      
H        H      0.493750000000     0.178000000000     0.382800000000     0.002      
H        H      0.488000000000     0.100700000000     0.347200000000     0.07       
H        H      0.024300000000     0.101750000000     0.291850000000     0.003      
H        H      0.174350000000     0.119100000000     0.292900000000     0.068      
H        H      0.140750000000     0.092400000000     0.310600000000     0.072      
H        H      0.127250000000     0.081250000000     0.221700000000     0.098      
H        H      0.088350000000     0.058800000000     0.236700000000     0.108      
H        H      0.043100000000     0.248550000000     0.282400000000     0.097      
C        C      0.272650000000     0.369650000000     0.294450000000     0.068      
C        C      0.277050000000     0.339200000000     0.260350000000    -0.13       
C        C      0.246950000000     0.337550000000     0.221750000000     0.061      
C        C      0.123050000000     0.388800000000     0.116050000000     0.06       
C        C      0.094300000000     0.409800000000     0.106100000000    -0.134      
C        C      0.096850000000     0.436000000000     0.147700000000     0.066      
C        C      0.139350000000     0.494800000000     0.331700000000     0.061      
C        C      0.158850000000     0.498250000000     0.374150000000    -0.137      
C        C      0.188900000000     0.478050000000     0.373300000000     0.057      
C        C      0.204650000000     0.375700000000     0.357750000000     0.359      
C        C      0.212200000000     0.357550000000     0.394450000000    -0.211      
C        C      0.255650000000     0.379100000000     0.430400000000    -0.216      
C        C      0.257250000000     0.364050000000     0.468300000000     0.347      
C        C      0.294450000000     0.272650000000     0.369650000000     0.068      
C        C      0.260350000000     0.277050000000     0.339200000000    -0.13       
C        C      0.221750000000     0.246950000000     0.337550000000     0.061      
C        C      0.116050000000     0.123050000000     0.388800000000     0.06       
C        C      0.106100000000     0.094300000000     0.409800000000    -0.134      
C        C      0.147700000000     0.096850000000     0.436000000000     0.066      
C        C      0.331700000000     0.139350000000     0.494800000000     0.061      
C        C      0.374150000000     0.158850000000     0.498250000000    -0.137      
C        C      0.373300000000     0.188900000000     0.478050000000     0.057      
C        C      0.357750000000     0.204650000000     0.375700000000     0.359      
C        C      0.394450000000     0.212200000000     0.357550000000    -0.211      
C        C      0.430400000000     0.255650000000     0.379100000000    -0.216      
C        C      0.468300000000     0.257250000000     0.364050000000     0.347      
C        C      0.369650000000     0.294450000000     0.272650000000     0.068      
C        C      0.339200000000     0.260350000000     0.277050000000    -0.13       
C        C      0.337550000000     0.221750000000     0.246950000000     0.061      
C        C      0.388800000000     0.116050000000     0.123050000000     0.06       
C        C      0.409800000000     0.106100000000     0.094300000000    -0.134      
C        C      0.436000000000     0.147700000000     0.096850000000     0.066      
C        C      0.494800000000     0.331700000000     0.139350000000     0.061      
C        C      0.498250000000     0.374150000000     0.158850000000    -0.137      
C        C      0.478050000000     0.373300000000     0.188900000000     0.057      
C        C      0.375700000000     0.357750000000     0.204650000000     0.359      
C        C      0.357550000000     0.394450000000     0.212200000000    -0.211      
C        C      0.379100000000     0.430400000000     0.255650000000    -0.216      
C        C      0.364050000000     0.468300000000     0.257250000000     0.347      
C        C      0.227350000000     0.130350000000     0.205550000000     0.068      
C        C      0.222950000000     0.160800000000     0.239650000000    -0.13       
C        C      0.253050000000     0.162450000000     0.278250000000     0.061      
C        C      0.376950000000     0.111200000000     0.383950000000     0.06       
C        C      0.405700000000     0.090200000000     0.393900000000    -0.134      
C        C      0.403150000000     0.064000000000     0.352300000000     0.066      
C        C      0.360650000000     0.005200000000     0.168300000000     0.061      
C        C      0.341150000000     0.001750000000     0.125850000000    -0.137      
C        C      0.311100000000     0.021950000000     0.126700000000     0.057      
C        C      0.295350000000     0.124300000000     0.142250000000     0.359      
C        C      0.287800000000     0.142450000000     0.105550000000    -0.211      
C        C      0.244350000000     0.120900000000     0.069600000000    -0.216      
C        C      0.242750000000     0.135950000000     0.031700000000     0.347      
C        C      0.205550000000     0.227350000000     0.130350000000     0.068      
C        C      0.239650000000     0.222950000000     0.160800000000    -0.13       
C        C      0.278250000000     0.253050000000     0.162450000000     0.061      
C        C      0.383950000000     0.376950000000     0.111200000000     0.06       
C        C      0.393900000000     0.405700000000     0.090200000000    -0.134      
C        C      0.352300000000     0.403150000000     0.064000000000     0.066      
C        C      0.168300000000     0.360650000000     0.005200000000     0.061      
C        C      0.125850000000     0.341150000000     0.001750000000    -0.137      
C        C      0.126700000000     0.311100000000     0.021950000000     0.057      
C        C      0.142250000000     0.295350000000     0.124300000000     0.359      
C        C      0.105550000000     0.287800000000     0.142450000000    -0.211      
C        C      0.069600000000     0.244350000000     0.120900000000    -0.216      
C        C      0.031700000000     0.242750000000     0.135950000000     0.347      
C        C      0.130350000000     0.205550000000     0.227350000000     0.068      
C        C      0.160800000000     0.239650000000     0.222950000000    -0.13       
C        C      0.162450000000     0.278250000000     0.253050000000     0.061      
C        C      0.111200000000     0.383950000000     0.376950000000     0.06       
C        C      0.090200000000     0.393900000000     0.405700000000    -0.134      
C        C      0.064000000000     0.352300000000     0.403150000000     0.066      
C        C      0.005200000000     0.168300000000     0.360650000000     0.061      
C        C      0.001750000000     0.125850000000     0.341150000000    -0.137      
C        C      0.021950000000     0.126700000000     0.311100000000     0.057      
C        C      0.124300000000     0.142250000000     0.295350000000     0.359      
C        C      0.142450000000     0.105550000000     0.287800000000    -0.211      
C        C      0.120900000000     0.069600000000     0.244350000000    -0.216      
C        C      0.135950000000     0.031700000000     0.242750000000     0.347      
N        N      0.242350000000     0.385750000000     0.277750000000    -0.205      
N        N      0.226300000000     0.365750000000     0.232650000000    -0.209      
N        N      0.141450000000     0.400300000000     0.160400000000    -0.216      
N        N      0.124300000000     0.429500000000     0.179400000000    -0.212      
N        N      0.156450000000     0.472500000000     0.305550000000    -0.211      
N        N      0.186650000000     0.462050000000     0.330950000000    -0.205      
N        N      0.277750000000     0.242350000000     0.385750000000    -0.205      
N        N      0.232650000000     0.226300000000     0.365750000000    -0.209      
N        N      0.160400000000     0.141450000000     0.400300000000    -0.216      
N        N      0.179400000000     0.124300000000     0.429500000000    -0.212      
N        N      0.305550000000     0.156450000000     0.472500000000    -0.211      
N        N      0.330950000000     0.186650000000     0.462050000000    -0.205      
N        N      0.385750000000     0.277750000000     0.242350000000    -0.205      
N        N      0.365750000000     0.232650000000     0.226300000000    -0.209      
N        N      0.400300000000     0.160400000000     0.141450000000    -0.216      
N        N      0.429500000000     0.179400000000     0.124300000000    -0.212      
N        N      0.472500000000     0.305550000000     0.156450000000    -0.211      
N        N      0.462050000000     0.330950000000     0.186650000000    -0.205      
N        N      0.257650000000     0.114250000000     0.222250000000    -0.205      
N        N      0.273700000000     0.134250000000     0.267350000000    -0.209      
N        N      0.358550000000     0.099700000000     0.339600000000    -0.216      
N        N      0.375700000000     0.070500000000     0.320600000000    -0.212      
N        N      0.343550000000     0.027500000000     0.194450000000    -0.211      
N        N      0.313350000000     0.037950000000     0.169050000000    -0.205      
N        N      0.222250000000     0.257650000000     0.114250000000    -0.205      
N        N      0.267350000000     0.273700000000     0.134250000000    -0.209      
N        N      0.339600000000     0.358550000000     0.099700000000    -0.216      
N        N      0.320600000000     0.375700000000     0.070500000000    -0.212      
N        N      0.194450000000     0.343550000000     0.027500000000    -0.211      
N        N      0.169050000000     0.313350000000     0.037950000000    -0.205      
N        N      0.114250000000     0.222250000000     0.257650000000    -0.205      
N        N      0.134250000000     0.267350000000     0.273700000000    -0.209      
N        N      0.099700000000     0.339600000000     0.358550000000    -0.216      
N        N      0.070500000000     0.320600000000     0.375700000000    -0.212      
N        N      0.027500000000     0.194450000000     0.343550000000    -0.211      
N        N      0.037950000000     0.169050000000     0.313350000000    -0.205      
O        O      0.234850000000     0.409600000000     0.361000000000    -0.408      
O        O      0.168000000000     0.357350000000     0.324850000000    -0.472      
O        O      0.263150000000     0.392450000000     0.005850000000    -0.399      
O        O      0.251850000000     0.325000000000     0.462800000000    -0.363      
O        O      0.192050000000     0.431650000000     0.249150000000    -0.635      
O        O      0.361000000000     0.234850000000     0.409600000000    -0.408      
O        O      0.324850000000     0.168000000000     0.357350000000    -0.472      
O        O      0.005850000000     0.263150000000     0.392450000000    -0.399      
O        O      0.462800000000     0.251850000000     0.325000000000    -0.363      
O        O      0.249150000000     0.192050000000     0.431650000000    -0.635      
O        O      0.409600000000     0.361000000000     0.234850000000    -0.408      
O        O      0.357350000000     0.324850000000     0.168000000000    -0.472      
O        O      0.392450000000     0.005850000000     0.263150000000    -0.399      
O        O      0.325000000000     0.462800000000     0.251850000000    -0.363      
O        O      0.431650000000     0.249150000000     0.192050000000    -0.635      
O        O      0.265150000000     0.090400000000     0.139000000000    -0.408      
O        O      0.332000000000     0.142650000000     0.175150000000    -0.472      
O        O      0.236850000000     0.107550000000     0.494150000000    -0.399      
O        O      0.248150000000     0.175000000000     0.037200000000    -0.363      
O        O      0.307950000000     0.068350000000     0.250850000000    -0.635      
O        O      0.139000000000     0.265150000000     0.090400000000    -0.408      
O        O      0.175150000000     0.332000000000     0.142650000000    -0.472      
O        O      0.494150000000     0.236850000000     0.107550000000    -0.399      
O        O      0.037200000000     0.248150000000     0.175000000000    -0.363      
O        O      0.250850000000     0.307950000000     0.068350000000    -0.635      
O        O      0.090400000000     0.139000000000     0.265150000000    -0.408      
O        O      0.142650000000     0.175150000000     0.332000000000    -0.472      
O        O      0.107550000000     0.494150000000     0.236850000000    -0.399      
O        O      0.175000000000     0.037200000000     0.248150000000    -0.363      
O        O      0.068350000000     0.250850000000     0.307950000000    -0.635      
Cu       Cu     0.217350000000     0.424960000000     0.806950000000     0.877      
Cu       Cu     0.185660000000     0.383525000000     0.695035000000     0.87       
Cu       Cu     0.143880000000     0.455970000000     0.742955000000     0.88       
Cu       Cu     0.306950000000     0.217350000000     0.924960000000     0.877      
Cu       Cu     0.195035000000     0.185660000000     0.883525000000     0.87       
Cu       Cu     0.242955000000     0.143880000000     0.955970000000     0.88       
Cu       Cu     0.424960000000     0.306950000000     0.717350000000     0.878      
Cu       Cu     0.383525000000     0.195035000000     0.685660000000     0.871      
Cu       Cu     0.455970000000     0.242955000000     0.643880000000     0.881      
Cu       Cu     0.282650000000     0.075040000000     0.693050000000     0.878      
Cu       Cu     0.314340000000     0.116475000000     0.804965000000     0.871      
Cu       Cu     0.356120000000     0.044030000000     0.757045000000     0.881      
Cu       Cu     0.193050000000     0.282650000000     0.575040000000     0.878      
Cu       Cu     0.304965000000     0.314340000000     0.616475000000     0.871      
Cu       Cu     0.257045000000     0.356120000000     0.544030000000     0.881      
Cu       Cu     0.075040000000     0.193050000000     0.782650000000     0.878      
Cu       Cu     0.116475000000     0.304965000000     0.814340000000     0.871      
Cu       Cu     0.044030000000     0.257045000000     0.856120000000     0.881      
H        H      0.288800000000     0.377950000000     0.825200000000    -0.001      
H        H      0.296250000000     0.323100000000     0.762800000000     0.071      
H        H      0.241800000000     0.319400000000     0.692400000000    -0.004      
H        H      0.129200000000     0.368900000000     0.594700000000    -0          
H        H      0.076650000000     0.407200000000     0.577600000000     0.069      
H        H      0.081200000000     0.455450000000     0.652300000000     0.002      
H        H      0.117200000000     0.006250000000     0.822000000000     0.002      
H        H      0.152800000000     0.012000000000     0.899300000000     0.07       
H        H      0.208150000000     0.475700000000     0.898250000000     0.003      
H        H      0.207100000000     0.325650000000     0.880900000000     0.068      
H        H      0.189400000000     0.359250000000     0.907600000000     0.072      
H        H      0.278300000000     0.372750000000     0.918750000000     0.098      
H        H      0.263300000000     0.411650000000     0.941200000000     0.108      
H        H      0.217600000000     0.456900000000     0.751450000000     0.097      
H        H      0.325200000000     0.288800000000     0.877950000000    -0.001      
H        H      0.262800000000     0.296250000000     0.823100000000     0.071      
H        H      0.192400000000     0.241800000000     0.819400000000    -0.004      
H        H      0.094700000000     0.129200000000     0.868900000000    -0          
H        H      0.077600000000     0.076650000000     0.907200000000     0.069      
H        H      0.152300000000     0.081200000000     0.955450000000     0.002      
H        H      0.322000000000     0.117200000000     0.506250000000     0.002      
H        H      0.399300000000     0.152800000000     0.512000000000     0.07       
H        H      0.398250000000     0.208150000000     0.975700000000     0.003      
H        H      0.380900000000     0.207100000000     0.825650000000     0.068      
H        H      0.407600000000     0.189400000000     0.859250000000     0.072      
H        H      0.418750000000     0.278300000000     0.872750000000     0.098      
H        H      0.441200000000     0.263300000000     0.911650000000     0.108      
H        H      0.251450000000     0.217600000000     0.956900000000     0.097      
H        H      0.377950000000     0.325200000000     0.788800000000    -0.001      
H        H      0.323100000000     0.262800000000     0.796250000000     0.071      
H        H      0.319400000000     0.192400000000     0.741800000000    -0.004      
H        H      0.368900000000     0.094700000000     0.629200000000    -0          
H        H      0.407200000000     0.077600000000     0.576650000000     0.069      
H        H      0.455450000000     0.152300000000     0.581200000000     0.002      
H        H      0.006250000000     0.322000000000     0.617200000000     0.002      
H        H      0.012000000000     0.399300000000     0.652800000000     0.07       
H        H      0.475700000000     0.398250000000     0.708150000000     0.003      
H        H      0.325650000000     0.380900000000     0.707100000000     0.068      
H        H      0.359250000000     0.407600000000     0.689400000000     0.072      
H        H      0.372750000000     0.418750000000     0.778300000000     0.098      
H        H      0.411650000000     0.441200000000     0.763300000000     0.108      
H        H      0.456900000000     0.251450000000     0.717600000000     0.097      
H        H      0.211200000000     0.122050000000     0.674800000000    -0.001      
H        H      0.203750000000     0.176900000000     0.737200000000     0.071      
H        H      0.258200000000     0.180600000000     0.807600000000    -0.004      
H        H      0.370800000000     0.131100000000     0.905300000000    -0          
H        H      0.423350000000     0.092800000000     0.922400000000     0.069      
H        H      0.418800000000     0.044550000000     0.847700000000     0.002      
H        H      0.382800000000     0.493750000000     0.678000000000     0.002      
H        H      0.347200000000     0.488000000000     0.600700000000     0.07       
H        H      0.291850000000     0.024300000000     0.601750000000     0.003      
H        H      0.292900000000     0.174350000000     0.619100000000     0.068      
H        H      0.310600000000     0.140750000000     0.592400000000     0.072      
H        H      0.221700000000     0.127250000000     0.581250000000     0.098      
H        H      0.236700000000     0.088350000000     0.558800000000     0.108      
H        H      0.282400000000     0.043100000000     0.748550000000     0.097      
H        H      0.174800000000     0.211200000000     0.622050000000    -0.001      
H        H      0.237200000000     0.203750000000     0.676900000000     0.071      
H        H      0.307600000000     0.258200000000     0.680600000000    -0.004      
H        H      0.405300000000     0.370800000000     0.631100000000    -0          
H        H      0.422400000000     0.423350000000     0.592800000000     0.069      
H        H      0.347700000000     0.418800000000     0.544550000000     0.002      
H        H      0.178000000000     0.382800000000     0.993750000000     0.002      
H        H      0.100700000000     0.347200000000     0.988000000000     0.07       
H        H      0.101750000000     0.291850000000     0.524300000000     0.003      
H        H      0.119100000000     0.292900000000     0.674350000000     0.068      
H        H      0.092400000000     0.310600000000     0.640750000000     0.072      
H        H      0.081250000000     0.221700000000     0.627250000000     0.098      
H        H      0.058800000000     0.236700000000     0.588350000000     0.108      
H        H      0.248550000000     0.282400000000     0.543100000000     0.097      
H        H      0.122050000000     0.174800000000     0.711200000000    -0.001      
H        H      0.176900000000     0.237200000000     0.703750000000     0.071      
H        H      0.180600000000     0.307600000000     0.758200000000    -0.004      
H        H      0.131100000000     0.405300000000     0.870800000000    -0          
H        H      0.092800000000     0.422400000000     0.923350000000     0.069      
H        H      0.044550000000     0.347700000000     0.918800000000     0.002      
H        H      0.493750000000     0.178000000000     0.882800000000     0.002      
H        H      0.488000000000     0.100700000000     0.847200000000     0.07       
H        H      0.024300000000     0.101750000000     0.791850000000     0.003      
H        H      0.174350000000     0.119100000000     0.792900000000     0.068      
H        H      0.140750000000     0.092400000000     0.810600000000     0.072      
H        H      0.127250000000     0.081250000000     0.721700000000     0.098      
H        H      0.088350000000     0.058800000000     0.736700000000     0.108      
H        H      0.043100000000     0.248550000000     0.782400000000     0.097      
C        C      0.272650000000     0.369650000000     0.794450000000     0.068      
C        C      0.277050000000     0.339200000000     0.760350000000    -0.13       
C        C      0.246950000000     0.337550000000     0.721750000000     0.061      
C        C      0.123050000000     0.388800000000     0.616050000000     0.06       
C        C      0.094300000000     0.409800000000     0.606100000000    -0.134      
C        C      0.096850000000     0.436000000000     0.647700000000     0.066      
C        C      0.139350000000     0.494800000000     0.831700000000     0.061      
C        C      0.158850000000     0.498250000000     0.874150000000    -0.137      
C        C      0.188900000000     0.478050000000     0.873300000000     0.057      
C        C      0.204650000000     0.375700000000     0.857750000000     0.359      
C        C      0.212200000000     0.357550000000     0.894450000000    -0.211      
C        C      0.255650000000     0.379100000000     0.930400000000    -0.216      
C        C      0.257250000000     0.364050000000     0.968300000000     0.347      
C        C      0.294450000000     0.272650000000     0.869650000000     0.068      
C        C      0.260350000000     0.277050000000     0.839200000000    -0.13       
C        C      0.221750000000     0.246950000000     0.837550000000     0.061      
C        C      0.116050000000     0.123050000000     0.888800000000     0.06       
C        C      0.106100000000     0.094300000000     0.909800000000    -0.134      
C        C      0.147700000000     0.096850000000     0.936000000000     0.066      
C        C      0.331700000000     0.139350000000     0.994800000000     0.061      
C        C      0.374150000000     0.158850000000     0.998250000000    -0.137      
C        C      0.373300000000     0.188900000000     0.978050000000     0.057      
C        C      0.357750000000     0.204650000000     0.875700000000     0.359      
C        C      0.394450000000     0.212200000000     0.857550000000    -0.211      
C        C      0.430400000000     0.255650000000     0.879100000000    -0.216      
C        C      0.468300000000     0.257250000000     0.864050000000     0.347      
C        C      0.369650000000     0.294450000000     0.772650000000     0.068      
C        C      0.339200000000     0.260350000000     0.777050000000    -0.13       
C        C      0.337550000000     0.221750000000     0.746950000000     0.061      
C        C      0.388800000000     0.116050000000     0.623050000000     0.06       
C        C      0.409800000000     0.106100000000     0.594300000000    -0.134      
C        C      0.436000000000     0.147700000000     0.596850000000     0.066      
C        C      0.494800000000     0.331700000000     0.639350000000     0.061      
C        C      0.498250000000     0.374150000000     0.658850000000    -0.137      
C        C      0.478050000000     0.373300000000     0.688900000000     0.057      
C        C      0.375700000000     0.357750000000     0.704650000000     0.359      
C        C      0.357550000000     0.394450000000     0.712200000000    -0.211      
C        C      0.379100000000     0.430400000000     0.755650000000    -0.216      
C        C      0.364050000000     0.468300000000     0.757250000000     0.347      
C        C      0.227350000000     0.130350000000     0.705550000000     0.068      
C        C      0.222950000000     0.160800000000     0.739650000000    -0.13       
C        C      0.253050000000     0.162450000000     0.778250000000     0.061      
C        C      0.376950000000     0.111200000000     0.883950000000     0.06       
C        C      0.405700000000     0.090200000000     0.893900000000    -0.134      
C        C      0.403150000000     0.064000000000     0.852300000000     0.066      
C        C      0.360650000000     0.005200000000     0.668300000000     0.061      
C        C      0.341150000000     0.001750000000     0.625850000000    -0.137      
C        C      0.311100000000     0.021950000000     0.626700000000     0.057      
C        C      0.295350000000     0.124300000000     0.642250000000     0.359      
C        C      0.287800000000     0.142450000000     0.605550000000    -0.211      
C        C      0.244350000000     0.120900000000     0.569600000000    -0.216      
C        C      0.242750000000     0.135950000000     0.531700000000     0.347      
C        C      0.205550000000     0.227350000000     0.630350000000     0.068      
C        C      0.239650000000     0.222950000000     0.660800000000    -0.13       
C        C      0.278250000000     0.253050000000     0.662450000000     0.061      
C        C      0.383950000000     0.376950000000     0.611200000000     0.06       
C        C      0.393900000000     0.405700000000     0.590200000000    -0.134      
C        C      0.352300000000     0.403150000000     0.564000000000     0.066      
C        C      0.168300000000     0.360650000000     0.505200000000     0.061      
C        C      0.125850000000     0.341150000000     0.501750000000    -0.137      
C        C      0.126700000000     0.311100000000     0.521950000000     0.057      
C        C      0.142250000000     0.295350000000     0.624300000000     0.359      
C        C      0.105550000000     0.287800000000     0.642450000000    -0.211      
C        C      0.069600000000     0.244350000000     0.620900000000    -0.216      
C        C      0.031700000000     0.242750000000     0.635950000000     0.347      
C        C      0.130350000000     0.205550000000     0.727350000000     0.068      
C        C      0.160800000000     0.239650000000     0.722950000000    -0.13       
C        C      0.162450000000     0.278250000000     0.753050000000     0.061      
C        C      0.111200000000     0.383950000000     0.876950000000     0.06       
C        C      0.090200000000     0.393900000000     0.905700000000    -0.134      
C        C      0.064000000000     0.352300000000     0.903150000000     0.066      
C        C      0.005200000000     0.168300000000     0.860650000000     0.061      
C        C      0.001750000000     0.125850000000     0.841150000000    -0.137      
C        C      0.021950000000     0.126700000000     0.811100000000     0.057      
C        C      0.124300000000     0.142250000000     0.795350000000     0.359      
C        C      0.142450000000     0.105550000000     0.787800000000    -0.211      
C        C      0.120900000000     0.069600000000     0.744350000000    -0.216      
C        C      0.135950000000     0.031700000000     0.742750000000     0.347      
N        N      0.242350000000     0.385750000000     0.777750000000    -0.205      
N        N      0.226300000000     0.365750000000     0.732650000000    -0.209      
N        N      0.141450000000     0.400300000000     0.660400000000    -0.216      
N        N      0.124300000000     0.429500000000     0.679400000000    -0.212      
N        N      0.156450000000     0.472500000000     0.805550000000    -0.211      
N        N      0.186650000000     0.462050000000     0.830950000000    -0.205      
N        N      0.277750000000     0.242350000000     0.885750000000    -0.205      
N        N      0.232650000000     0.226300000000     0.865750000000    -0.209      
N        N      0.160400000000     0.141450000000     0.900300000000    -0.216      
N        N      0.179400000000     0.124300000000     0.929500000000    -0.212      
N        N      0.305550000000     0.156450000000     0.972500000000    -0.211      
N        N      0.330950000000     0.186650000000     0.962050000000    -0.205      
N        N      0.385750000000     0.277750000000     0.742350000000    -0.205      
N        N      0.365750000000     0.232650000000     0.726300000000    -0.209      
N        N      0.400300000000     0.160400000000     0.641450000000    -0.216      
N        N      0.429500000000     0.179400000000     0.624300000000    -0.212      
N        N      0.472500000000     0.305550000000     0.656450000000    -0.211      
N        N      0.462050000000     0.330950000000     0.686650000000    -0.205      
N        N      0.257650000000     0.114250000000     0.722250000000    -0.205      
N        N      0.273700000000     0.134250000000     0.767350000000    -0.209      
N        N      0.358550000000     0.099700000000     0.839600000000    -0.216      
N        N      0.375700000000     0.070500000000     0.820600000000    -0.212      
N        N      0.343550000000     0.027500000000     0.694450000000    -0.211      
N        N      0.313350000000     0.037950000000     0.669050000000    -0.205      
N        N      0.222250000000     0.257650000000     0.614250000000    -0.205      
N        N      0.267350000000     0.273700000000     0.634250000000    -0.209      
N        N      0.339600000000     0.358550000000     0.599700000000    -0.216      
N        N      0.320600000000     0.375700000000     0.570500000000    -0.212      
N        N      0.194450000000     0.343550000000     0.527500000000    -0.211      
N        N      0.169050000000     0.313350000000     0.537950000000    -0.205      
N        N      0.114250000000     0.222250000000     0.757650000000    -0.205      
N        N      0.134250000000     0.267350000000     0.773700000000    -0.209      
N        N      0.099700000000     0.339600000000     0.858550000000    -0.216      
N        N      0.070500000000     0.320600000000     0.875700000000    -0.212      
N        N      0.027500000000     0.194450000000     0.843550000000    -0.211      
N        N      0.037950000000     0.169050000000     0.813350000000    -0.205      
O        O      0.234850000000     0.409600000000     0.861000000000    -0.408      
O        O      0.168000000000     0.357350000000     0.824850000000    -0.472      
O        O      0.263150000000     0.392450000000     0.505850000000    -0.399      
O        O      0.251850000000     0.325000000000     0.962800000000    -0.363      
O        O      0.192050000000     0.431650000000     0.749150000000    -0.635      
O        O      0.361000000000     0.234850000000     0.909600000000    -0.408      
O        O      0.324850000000     0.168000000000     0.857350000000    -0.472      
O        O      0.005850000000     0.263150000000     0.892450000000    -0.399      
O        O      0.462800000000     0.251850000000     0.825000000000    -0.363      
O        O      0.249150000000     0.192050000000     0.931650000000    -0.635      
O        O      0.409600000000     0.361000000000     0.734850000000    -0.408      
O        O      0.357350000000     0.324850000000     0.668000000000    -0.472      
O        O      0.392450000000     0.005850000000     0.763150000000    -0.399      
O        O      0.325000000000     0.462800000000     0.751850000000    -0.363      
O        O      0.431650000000     0.249150000000     0.692050000000    -0.635      
O        O      0.265150000000     0.090400000000     0.639000000000    -0.408      
O        O      0.332000000000     0.142650000000     0.675150000000    -0.472      
O        O      0.236850000000     0.107550000000     0.994150000000    -0.399      
O        O      0.248150000000     0.175000000000     0.537200000000    -0.363      
O        O      0.307950000000     0.068350000000     0.750850000000    -0.635      
O        O      0.139000000000     0.265150000000     0.590400000000    -0.408      
O        O      0.175150000000     0.332000000000     0.642650000000    -0.472      
O        O      0.494150000000     0.236850000000     0.607550000000    -0.399      
O        O      0.037200000000     0.248150000000     0.675000000000    -0.363      
O        O      0.250850000000     0.307950000000     0.568350000000    -0.635      
O        O      0.090400000000     0.139000000000     0.765150000000    -0.408      
O        O      0.142650000000     0.175150000000     0.832000000000    -0.472      
O        O      0.107550000000     0.494150000000     0.736850000000    -0.399      
O        O      0.175000000000     0.037200000000     0.748150000000    -0.363      
O        O      0.068350000000     0.250850000000     0.807950000000    -0.635      
Cu       Cu     0.217350000000     0.924960000000     0.306950000000     0.877      
Cu       Cu     0.185660000000     0.883525000000     0.195035000000     0.87       
Cu       Cu     0.143880000000     0.955970000000     0.242955000000     0.88       
Cu       Cu     0.306950000000     0.717350000000     0.424960000000     0.877      
Cu       Cu     0.195035000000     0.685660000000     0.383525000000     0.87       
Cu       Cu     0.242955000000     0.643880000000     0.455970000000     0.88       
Cu       Cu     0.424960000000     0.806950000000     0.217350000000     0.878      
Cu       Cu     0.383525000000     0.695035000000     0.185660000000     0.871      
Cu       Cu     0.455970000000     0.742955000000     0.143880000000     0.881      
Cu       Cu     0.282650000000     0.575040000000     0.193050000000     0.878      
Cu       Cu     0.314340000000     0.616475000000     0.304965000000     0.871      
Cu       Cu     0.356120000000     0.544030000000     0.257045000000     0.881      
Cu       Cu     0.193050000000     0.782650000000     0.075040000000     0.878      
Cu       Cu     0.304965000000     0.814340000000     0.116475000000     0.871      
Cu       Cu     0.257045000000     0.856120000000     0.044030000000     0.881      
Cu       Cu     0.075040000000     0.693050000000     0.282650000000     0.878      
Cu       Cu     0.116475000000     0.804965000000     0.314340000000     0.871      
Cu       Cu     0.044030000000     0.757045000000     0.356120000000     0.881      
H        H      0.288800000000     0.877950000000     0.325200000000    -0.001      
H        H      0.296250000000     0.823100000000     0.262800000000     0.071      
H        H      0.241800000000     0.819400000000     0.192400000000    -0.004      
H        H      0.129200000000     0.868900000000     0.094700000000    -0          
H        H      0.076650000000     0.907200000000     0.077600000000     0.069      
H        H      0.081200000000     0.955450000000     0.152300000000     0.002      
H        H      0.117200000000     0.506250000000     0.322000000000     0.002      
H        H      0.152800000000     0.512000000000     0.399300000000     0.07       
H        H      0.208150000000     0.975700000000     0.398250000000     0.003      
H        H      0.207100000000     0.825650000000     0.380900000000     0.068      
H        H      0.189400000000     0.859250000000     0.407600000000     0.072      
H        H      0.278300000000     0.872750000000     0.418750000000     0.098      
H        H      0.263300000000     0.911650000000     0.441200000000     0.108      
H        H      0.217600000000     0.956900000000     0.251450000000     0.097      
H        H      0.325200000000     0.788800000000     0.377950000000    -0.001      
H        H      0.262800000000     0.796250000000     0.323100000000     0.071      
H        H      0.192400000000     0.741800000000     0.319400000000    -0.004      
H        H      0.094700000000     0.629200000000     0.368900000000    -0          
H        H      0.077600000000     0.576650000000     0.407200000000     0.069      
H        H      0.152300000000     0.581200000000     0.455450000000     0.002      
H        H      0.322000000000     0.617200000000     0.006250000000     0.002      
H        H      0.399300000000     0.652800000000     0.012000000000     0.07       
H        H      0.398250000000     0.708150000000     0.475700000000     0.003      
H        H      0.380900000000     0.707100000000     0.325650000000     0.068      
H        H      0.407600000000     0.689400000000     0.359250000000     0.072      
H        H      0.418750000000     0.778300000000     0.372750000000     0.098      
H        H      0.441200000000     0.763300000000     0.411650000000     0.108      
H        H      0.251450000000     0.717600000000     0.456900000000     0.097      
H        H      0.377950000000     0.825200000000     0.288800000000    -0.001      
H        H      0.323100000000     0.762800000000     0.296250000000     0.071      
H        H      0.319400000000     0.692400000000     0.241800000000    -0.004      
H        H      0.368900000000     0.594700000000     0.129200000000    -0          
H        H      0.407200000000     0.577600000000     0.076650000000     0.069      
H        H      0.455450000000     0.652300000000     0.081200000000     0.002      
H        H      0.006250000000     0.822000000000     0.117200000000     0.002      
H        H      0.012000000000     0.899300000000     0.152800000000     0.07       
H        H      0.475700000000     0.898250000000     0.208150000000     0.003      
H        H      0.325650000000     0.880900000000     0.207100000000     0.068      
H        H      0.359250000000     0.907600000000     0.189400000000     0.072      
H        H      0.372750000000     0.918750000000     0.278300000000     0.098      
H        H      0.411650000000     0.941200000000     0.263300000000     0.108      
H        H      0.456900000000     0.751450000000     0.217600000000     0.097      
H        H      0.211200000000     0.622050000000     0.174800000000    -0.001      
H        H      0.203750000000     0.676900000000     0.237200000000     0.071      
H        H      0.258200000000     0.680600000000     0.307600000000    -0.004      
H        H      0.370800000000     0.631100000000     0.405300000000    -0          
H        H      0.423350000000     0.592800000000     0.422400000000     0.069      
H        H      0.418800000000     0.544550000000     0.347700000000     0.002      
H        H      0.382800000000     0.993750000000     0.178000000000     0.002      
H        H      0.347200000000     0.988000000000     0.100700000000     0.07       
H        H      0.291850000000     0.524300000000     0.101750000000     0.003      
H        H      0.292900000000     0.674350000000     0.119100000000     0.068      
H        H      0.310600000000     0.640750000000     0.092400000000     0.072      
H        H      0.221700000000     0.627250000000     0.081250000000     0.098      
H        H      0.236700000000     0.588350000000     0.058800000000     0.108      
H        H      0.282400000000     0.543100000000     0.248550000000     0.097      
H        H      0.174800000000     0.711200000000     0.122050000000    -0.001      
H        H      0.237200000000     0.703750000000     0.176900000000     0.071      
H        H      0.307600000000     0.758200000000     0.180600000000    -0.004      
H        H      0.405300000000     0.870800000000     0.131100000000    -0          
H        H      0.422400000000     0.923350000000     0.092800000000     0.069      
H        H      0.347700000000     0.918800000000     0.044550000000     0.002      
H        H      0.178000000000     0.882800000000     0.493750000000     0.002      
H        H      0.100700000000     0.847200000000     0.488000000000     0.07       
H        H      0.101750000000     0.791850000000     0.024300000000     0.003      
H        H      0.119100000000     0.792900000000     0.174350000000     0.068      
H        H      0.092400000000     0.810600000000     0.140750000000     0.072      
H        H      0.081250000000     0.721700000000     0.127250000000     0.098      
H        H      0.058800000000     0.736700000000     0.088350000000     0.108      
H        H      0.248550000000     0.782400000000     0.043100000000     0.097      
H        H      0.122050000000     0.674800000000     0.211200000000    -0.001      
H        H      0.176900000000     0.737200000000     0.203750000000     0.071      
H        H      0.180600000000     0.807600000000     0.258200000000    -0.004      
H        H      0.131100000000     0.905300000000     0.370800000000    -0          
H        H      0.092800000000     0.922400000000     0.423350000000     0.069      
H        H      0.044550000000     0.847700000000     0.418800000000     0.002      
H        H      0.493750000000     0.678000000000     0.382800000000     0.002      
H        H      0.488000000000     0.600700000000     0.347200000000     0.07       
H        H      0.024300000000     0.601750000000     0.291850000000     0.003      
H        H      0.174350000000     0.619100000000     0.292900000000     0.068      
H        H      0.140750000000     0.592400000000     0.310600000000     0.072      
H        H      0.127250000000     0.581250000000     0.221700000000     0.098      
H        H      0.088350000000     0.558800000000     0.236700000000     0.108      
H        H      0.043100000000     0.748550000000     0.282400000000     0.097      
C        C      0.272650000000     0.869650000000     0.294450000000     0.068      
C        C      0.277050000000     0.839200000000     0.260350000000    -0.13       
C        C      0.246950000000     0.837550000000     0.221750000000     0.061      
C        C      0.123050000000     0.888800000000     0.116050000000     0.06       
C        C      0.094300000000     0.909800000000     0.106100000000    -0.134      
C        C      0.096850000000     0.936000000000     0.147700000000     0.066      
C        C      0.139350000000     0.994800000000     0.331700000000     0.061      
C        C      0.158850000000     0.998250000000     0.374150000000    -0.137      
C        C      0.188900000000     0.978050000000     0.373300000000     0.057      
C        C      0.204650000000     0.875700000000     0.357750000000     0.359      
C        C      0.212200000000     0.857550000000     0.394450000000    -0.211      
C        C      0.255650000000     0.879100000000     0.430400000000    -0.216      
C        C      0.257250000000     0.864050000000     0.468300000000     0.347      
C        C      0.294450000000     0.772650000000     0.369650000000     0.068      
C        C      0.260350000000     0.777050000000     0.339200000000    -0.13       
C        C      0.221750000000     0.746950000000     0.337550000000     0.061      
C        C      0.116050000000     0.623050000000     0.388800000000     0.06       
C        C      0.106100000000     0.594300000000     0.409800000000    -0.134      
C        C      0.147700000000     0.596850000000     0.436000000000     0.066      
C        C      0.331700000000     0.639350000000     0.494800000000     0.061      
C        C      0.374150000000     0.658850000000     0.498250000000    -0.137      
C        C      0.373300000000     0.688900000000     0.478050000000     0.057      
C        C      0.357750000000     0.704650000000     0.375700000000     0.359      
C        C      0.394450000000     0.712200000000     0.357550000000    -0.211      
C        C      0.430400000000     0.755650000000     0.379100000000    -0.216      
C        C      0.468300000000     0.757250000000     0.364050000000     0.347      
C        C      0.369650000000     0.794450000000     0.272650000000     0.068      
C        C      0.339200000000     0.760350000000     0.277050000000    -0.13       
C        C      0.337550000000     0.721750000000     0.246950000000     0.061      
C        C      0.388800000000     0.616050000000     0.123050000000     0.06       
C        C      0.409800000000     0.606100000000     0.094300000000    -0.134      
C        C      0.436000000000     0.647700000000     0.096850000000     0.066      
C        C      0.494800000000     0.831700000000     0.139350000000     0.061      
C        C      0.498250000000     0.874150000000     0.158850000000    -0.137      
C        C      0.478050000000     0.873300000000     0.188900000000     0.057      
C        C      0.375700000000     0.857750000000     0.204650000000     0.359      
C        C      0.357550000000     0.894450000000     0.212200000000    -0.211      
C        C      0.379100000000     0.930400000000     0.255650000000    -0.216      
C        C      0.364050000000     0.968300000000     0.257250000000     0.347      
C        C      0.227350000000     0.630350000000     0.205550000000     0.068      
C        C      0.222950000000     0.660800000000     0.239650000000    -0.13       
C        C      0.253050000000     0.662450000000     0.278250000000     0.061      
C        C      0.376950000000     0.611200000000     0.383950000000     0.06       
C        C      0.405700000000     0.590200000000     0.393900000000    -0.134      
C        C      0.403150000000     0.564000000000     0.352300000000     0.066      
C        C      0.360650000000     0.505200000000     0.168300000000     0.061      
C        C      0.341150000000     0.501750000000     0.125850000000    -0.137      
C        C      0.311100000000     0.521950000000     0.126700000000     0.057      
C        C      0.295350000000     0.624300000000     0.142250000000     0.359      
C        C      0.287800000000     0.642450000000     0.105550000000    -0.211      
C        C      0.244350000000     0.620900000000     0.069600000000    -0.216      
C        C      0.242750000000     0.635950000000     0.031700000000     0.347      
C        C      0.205550000000     0.727350000000     0.130350000000     0.068      
C        C      0.239650000000     0.722950000000     0.160800000000    -0.13       
C        C      0.278250000000     0.753050000000     0.162450000000     0.061      
C        C      0.383950000000     0.876950000000     0.111200000000     0.06       
C        C      0.393900000000     0.905700000000     0.090200000000    -0.134      
C        C      0.352300000000     0.903150000000     0.064000000000     0.066      
C        C      0.168300000000     0.860650000000     0.005200000000     0.061      
C        C      0.125850000000     0.841150000000     0.001750000000    -0.137      
C        C      0.126700000000     0.811100000000     0.021950000000     0.057      
C        C      0.142250000000     0.795350000000     0.124300000000     0.359      
C        C      0.105550000000     0.787800000000     0.142450000000    -0.211      
C        C      0.069600000000     0.744350000000     0.120900000000    -0.216      
C        C      0.031700000000     0.742750000000     0.135950000000     0.347      
C        C      0.130350000000     0.705550000000     0.227350000000     0.068      
C        C      0.160800000000     0.739650000000     0.222950000000    -0.13       
C        C      0.162450000000     0.778250000000     0.253050000000     0.061      
C        C      0.111200000000     0.883950000000     0.376950000000     0.06       
C        C      0.090200000000     0.893900000000     0.405700000000    -0.134      
C        C      0.064000000000     0.852300000000     0.403150000000     0.066      
C        C      0.005200000000     0.668300000000     0.360650000000     0.061      
C        C      0.001750000000     0.625850000000     0.341150000000    -0.137      
C        C      0.021950000000     0.626700000000     0.311100000000     0.057      
C        C      0.124300000000     0.642250000000     0.295350000000     0.359      
C        C      0.142450000000     0.605550000000     0.287800000000    -0.211      
C        C      0.120900000000     0.569600000000     0.244350000000    -0.216      
C        C      0.135950000000     0.531700000000     0.242750000000     0.347      
N        N      0.242350000000     0.885750000000     0.277750000000    -0.205      
N        N      0.226300000000     0.865750000000     0.232650000000    -0.209      
N        N      0.141450000000     0.900300000000     0.160400000000    -0.216      
N        N      0.124300000000     0.929500000000     0.179400000000    -0.212      
N        N      0.156450000000     0.972500000000     0.305550000000    -0.211      
N        N      0.186650000000     0.962050000000     0.330950000000    -0.205      
N        N      0.277750000000     0.742350000000     0.385750000000    -0.205      
N        N      0.232650000000     0.726300000000     0.365750000000    -0.209      
N        N      0.160400000000     0.641450000000     0.400300000000    -0.216      
N        N      0.179400000000     0.624300000000     0.429500000000    -0.212      
N        N      0.305550000000     0.656450000000     0.472500000000    -0.211      
N        N      0.330950000000     0.686650000000     0.462050000000    -0.205      
N        N      0.385750000000     0.777750000000     0.242350000000    -0.205      
N        N      0.365750000000     0.732650000000     0.226300000000    -0.209      
N        N      0.400300000000     0.660400000000     0.141450000000    -0.216      
N        N      0.429500000000     0.679400000000     0.124300000000    -0.212      
N        N      0.472500000000     0.805550000000     0.156450000000    -0.211      
N        N      0.462050000000     0.830950000000     0.186650000000    -0.205      
N        N      0.257650000000     0.614250000000     0.222250000000    -0.205      
N        N      0.273700000000     0.634250000000     0.267350000000    -0.209      
N        N      0.358550000000     0.599700000000     0.339600000000    -0.216      
N        N      0.375700000000     0.570500000000     0.320600000000    -0.212      
N        N      0.343550000000     0.527500000000     0.194450000000    -0.211      
N        N      0.313350000000     0.537950000000     0.169050000000    -0.205      
N        N      0.222250000000     0.757650000000     0.114250000000    -0.205      
N        N      0.267350000000     0.773700000000     0.134250000000    -0.209      
N        N      0.339600000000     0.858550000000     0.099700000000    -0.216      
N        N      0.320600000000     0.875700000000     0.070500000000    -0.212      
N        N      0.194450000000     0.843550000000     0.027500000000    -0.211      
N        N      0.169050000000     0.813350000000     0.037950000000    -0.205      
N        N      0.114250000000     0.722250000000     0.257650000000    -0.205      
N        N      0.134250000000     0.767350000000     0.273700000000    -0.209      
N        N      0.099700000000     0.839600000000     0.358550000000    -0.216      
N        N      0.070500000000     0.820600000000     0.375700000000    -0.212      
N        N      0.027500000000     0.694450000000     0.343550000000    -0.211      
N        N      0.037950000000     0.669050000000     0.313350000000    -0.205      
O        O      0.234850000000     0.909600000000     0.361000000000    -0.408      
O        O      0.168000000000     0.857350000000     0.324850000000    -0.472      
O        O      0.263150000000     0.892450000000     0.005850000000    -0.399      
O        O      0.251850000000     0.825000000000     0.462800000000    -0.363      
O        O      0.192050000000     0.931650000000     0.249150000000    -0.635      
O        O      0.361000000000     0.734850000000     0.409600000000    -0.408      
O        O      0.324850000000     0.668000000000     0.357350000000    -0.472      
O        O      0.005850000000     0.763150000000     0.392450000000    -0.399      
O        O      0.462800000000     0.751850000000     0.325000000000    -0.363      
O        O      0.249150000000     0.692050000000     0.431650000000    -0.635      
O        O      0.409600000000     0.861000000000     0.234850000000    -0.408      
O        O      0.357350000000     0.824850000000     0.168000000000    -0.472      
O        O      0.392450000000     0.505850000000     0.263150000000    -0.399      
O        O      0.325000000000     0.962800000000     0.251850000000    -0.363      
O        O      0.431650000000     0.749150000000     0.192050000000    -0.635      
O        O      0.265150000000     0.590400000000     0.139000000000    -0.408      
O        O      0.332000000000     0.642650000000     0.175150000000    -0.472      
O        O      0.236850000000     0.607550000000     0.494150000000    -0.399      
O        O      0.248150000000     0.675000000000     0.037200000000    -0.363      
O        O      0.307950000000     0.568350000000     0.250850000000    -0.635      
O        O      0.139000000000     0.765150000000     0.090400000000    -0.408      
O        O      0.175150000000     0.832000000000     0.142650000000    -0.472      
O        O      0.494150000000     0.736850000000     0.107550000000    -0.399      
O        O      0.037200000000     0.748150000000     0.175000000000    -0.363      
O        O      0.250850000000     0.807950000000     0.068350000000    -0.635      
O        O      0.090400000000     0.639000000000     0.265150000000    -0.408      
O        O      0.142650000000     0.675150000000     0.332000000000    -0.472      
O        O      0.107550000000     0.994150000000     0.236850000000    -0.399      
O        O      0.175000000000     0.537200000000     0.248150000000    -0.363      
O        O      0.068350000000     0.750850000000     0.307950000000    -0.635      
Cu       Cu     0.217350000000     0.924960000000     0.806950000000     0.877      
Cu       Cu     0.185660000000     0.883525000000     0.695035000000     0.87       
Cu       Cu     0.143880000000     0.955970000000     0.742955000000     0.88       
Cu       Cu     0.306950000000     0.717350000000     0.924960000000     0.877      
Cu       Cu     0.195035000000     0.685660000000     0.883525000000     0.87       
Cu       Cu     0.242955000000     0.643880000000     0.955970000000     0.88       
Cu       Cu     0.424960000000     0.806950000000     0.717350000000     0.878      
Cu       Cu     0.383525000000     0.695035000000     0.685660000000     0.871      
Cu       Cu     0.455970000000     0.742955000000     0.643880000000     0.881      
Cu       Cu     0.282650000000     0.575040000000     0.693050000000     0.878      
Cu       Cu     0.314340000000     0.616475000000     0.804965000000     0.871      
Cu       Cu     0.356120000000     0.544030000000     0.757045000000     0.881      
Cu       Cu     0.193050000000     0.782650000000     0.575040000000     0.878      
Cu       Cu     0.304965000000     0.814340000000     0.616475000000     0.871      
Cu       Cu     0.257045000000     0.856120000000     0.544030000000     0.881      
Cu       Cu     0.075040000000     0.693050000000     0.782650000000     0.878      
Cu       Cu     0.116475000000     0.804965000000     0.814340000000     0.871      
Cu       Cu     0.044030000000     0.757045000000     0.856120000000     0.881      
H        H      0.288800000000     0.877950000000     0.825200000000    -0.001      
H        H      0.296250000000     0.823100000000     0.762800000000     0.071      
H        H      0.241800000000     0.819400000000     0.692400000000    -0.004      
H        H      0.129200000000     0.868900000000     0.594700000000    -0          
H        H      0.076650000000     0.907200000000     0.577600000000     0.069      
H        H      0.081200000000     0.955450000000     0.652300000000     0.002      
H        H      0.117200000000     0.506250000000     0.822000000000     0.002      
H        H      0.152800000000     0.512000000000     0.899300000000     0.07       
H        H      0.208150000000     0.975700000000     0.898250000000     0.003      
H        H      0.207100000000     0.825650000000     0.880900000000     0.068      
H        H      0.189400000000     0.859250000000     0.907600000000     0.072      
H        H      0.278300000000     0.872750000000     0.918750000000     0.098      
H        H      0.263300000000     0.911650000000     0.941200000000     0.108      
H        H      0.217600000000     0.956900000000     0.751450000000     0.097      
H        H      0.325200000000     0.788800000000     0.877950000000    -0.001      
H        H      0.262800000000     0.796250000000     0.823100000000     0.071      
H        H      0.192400000000     0.741800000000     0.819400000000    -0.004      
H        H      0.094700000000     0.629200000000     0.868900000000    -0          
H        H      0.077600000000     0.576650000000     0.907200000000     0.069      
H        H      0.152300000000     0.581200000000     0.955450000000     0.002      
H        H      0.322000000000     0.617200000000     0.506250000000     0.002      
H        H      0.399300000000     0.652800000000     0.512000000000     0.07       
H        H      0.398250000000     0.708150000000     0.975700000000     0.003      
H        H      0.380900000000     0.707100000000     0.825650000000     0.068      
H        H      0.407600000000     0.689400000000     0.859250000000     0.072      
H        H      0.418750000000     0.778300000000     0.872750000000     0.098      
H        H      0.441200000000     0.763300000000     0.911650000000     0.108      
H        H      0.251450000000     0.717600000000     0.956900000000     0.097      
H        H      0.377950000000     0.825200000000     0.788800000000    -0.001      
H        H      0.323100000000     0.762800000000     0.796250000000     0.071      
H        H      0.319400000000     0.692400000000     0.741800000000    -0.004      
H        H      0.368900000000     0.594700000000     0.629200000000    -0          
H        H      0.407200000000     0.577600000000     0.576650000000     0.069      
H        H      0.455450000000     0.652300000000     0.581200000000     0.002      
H        H      0.006250000000     0.822000000000     0.617200000000     0.002      
H        H      0.012000000000     0.899300000000     0.652800000000     0.07       
H        H      0.475700000000     0.898250000000     0.708150000000     0.003      
H        H      0.325650000000     0.880900000000     0.707100000000     0.068      
H        H      0.359250000000     0.907600000000     0.689400000000     0.072      
H        H      0.372750000000     0.918750000000     0.778300000000     0.098      
H        H      0.411650000000     0.941200000000     0.763300000000     0.108      
H        H      0.456900000000     0.751450000000     0.717600000000     0.097      
H        H      0.211200000000     0.622050000000     0.674800000000    -0.001      
H        H      0.203750000000     0.676900000000     0.737200000000     0.071      
H        H      0.258200000000     0.680600000000     0.807600000000    -0.004      
H        H      0.370800000000     0.631100000000     0.905300000000    -0          
H        H      0.423350000000     0.592800000000     0.922400000000     0.069      
H        H      0.418800000000     0.544550000000     0.847700000000     0.002      
H        H      0.382800000000     0.993750000000     0.678000000000     0.002      
H        H      0.347200000000     0.988000000000     0.600700000000     0.07       
H        H      0.291850000000     0.524300000000     0.601750000000     0.003      
H        H      0.292900000000     0.674350000000     0.619100000000     0.068      
H        H      0.310600000000     0.640750000000     0.592400000000     0.072      
H        H      0.221700000000     0.627250000000     0.581250000000     0.098      
H        H      0.236700000000     0.588350000000     0.558800000000     0.108      
H        H      0.282400000000     0.543100000000     0.748550000000     0.097      
H        H      0.174800000000     0.711200000000     0.622050000000    -0.001      
H        H      0.237200000000     0.703750000000     0.676900000000     0.071      
H        H      0.307600000000     0.758200000000     0.680600000000    -0.004      
H        H      0.405300000000     0.870800000000     0.631100000000    -0          
H        H      0.422400000000     0.923350000000     0.592800000000     0.069      
H        H      0.347700000000     0.918800000000     0.544550000000     0.002      
H        H      0.178000000000     0.882800000000     0.993750000000     0.002      
H        H      0.100700000000     0.847200000000     0.988000000000     0.07       
H        H      0.101750000000     0.791850000000     0.524300000000     0.003      
H        H      0.119100000000     0.792900000000     0.674350000000     0.068      
H        H      0.092400000000     0.810600000000     0.640750000000     0.072      
H        H      0.081250000000     0.721700000000     0.627250000000     0.098      
H        H      0.058800000000     0.736700000000     0.588350000000     0.108      
H        H      0.248550000000     0.782400000000     0.543100000000     0.097      
H        H      0.122050000000     0.674800000000     0.711200000000    -0.001      
H        H      0.176900000000     0.737200000000     0.703750000000     0.071      
H        H      0.180600000000     0.807600000000     0.758200000000    -0.004      
H        H      0.131100000000     0.905300000000     0.870800000000    -0          
H        H      0.092800000000     0.922400000000     0.923350000000     0.069      
H        H      0.044550000000     0.847700000000     0.918800000000     0.002      
H        H      0.493750000000     0.678000000000     0.882800000000     0.002      
H        H      0.488000000000     0.600700000000     0.847200000000     0.07       
H        H      0.024300000000     0.601750000000     0.791850000000     0.003      
H        H      0.174350000000     0.619100000000     0.792900000000     0.068      
H        H      0.140750000000     0.592400000000     0.810600000000     0.072      
H        H      0.127250000000     0.581250000000     0.721700000000     0.098      
H        H      0.088350000000     0.558800000000     0.736700000000     0.108      
H        H      0.043100000000     0.748550000000     0.782400000000     0.097      
C        C      0.272650000000     0.869650000000     0.794450000000     0.068      
C        C      0.277050000000     0.839200000000     0.760350000000    -0.13       
C        C      0.246950000000     0.837550000000     0.721750000000     0.061      
C        C      0.123050000000     0.888800000000     0.616050000000     0.06       
C        C      0.094300000000     0.909800000000     0.606100000000    -0.134      
C        C      0.096850000000     0.936000000000     0.647700000000     0.066      
C        C      0.139350000000     0.994800000000     0.831700000000     0.061      
C        C      0.158850000000     0.998250000000     0.874150000000    -0.137      
C        C      0.188900000000     0.978050000000     0.873300000000     0.057      
C        C      0.204650000000     0.875700000000     0.857750000000     0.359      
C        C      0.212200000000     0.857550000000     0.894450000000    -0.211      
C        C      0.255650000000     0.879100000000     0.930400000000    -0.216      
C        C      0.257250000000     0.864050000000     0.968300000000     0.347      
C        C      0.294450000000     0.772650000000     0.869650000000     0.068      
C        C      0.260350000000     0.777050000000     0.839200000000    -0.13       
C        C      0.221750000000     0.746950000000     0.837550000000     0.061      
C        C      0.116050000000     0.623050000000     0.888800000000     0.06       
C        C      0.106100000000     0.594300000000     0.909800000000    -0.134      
C        C      0.147700000000     0.596850000000     0.936000000000     0.066      
C        C      0.331700000000     0.639350000000     0.994800000000     0.061      
C        C      0.374150000000     0.658850000000     0.998250000000    -0.137      
C        C      0.373300000000     0.688900000000     0.978050000000     0.057      
C        C      0.357750000000     0.704650000000     0.875700000000     0.359      
C        C      0.394450000000     0.712200000000     0.857550000000    -0.211      
C        C      0.430400000000     0.755650000000     0.879100000000    -0.216      
C        C      0.468300000000     0.757250000000     0.864050000000     0.347      
C        C      0.369650000000     0.794450000000     0.772650000000     0.068      
C        C      0.339200000000     0.760350000000     0.777050000000    -0.13       
C        C      0.337550000000     0.721750000000     0.746950000000     0.061      
C        C      0.388800000000     0.616050000000     0.623050000000     0.06       
C        C      0.409800000000     0.606100000000     0.594300000000    -0.134      
C        C      0.436000000000     0.647700000000     0.596850000000     0.066      
C        C      0.494800000000     0.831700000000     0.639350000000     0.061      
C        C      0.498250000000     0.874150000000     0.658850000000    -0.137      
C        C      0.478050000000     0.873300000000     0.688900000000     0.057      
C        C      0.375700000000     0.857750000000     0.704650000000     0.359      
C        C      0.357550000000     0.894450000000     0.712200000000    -0.211      
C        C      0.379100000000     0.930400000000     0.755650000000    -0.216      
C        C      0.364050000000     0.968300000000     0.757250000000     0.347      
C        C      0.227350000000     0.630350000000     0.705550000000     0.068      
C        C      0.222950000000     0.660800000000     0.739650000000    -0.13       
C        C      0.253050000000     0.662450000000     0.778250000000     0.061      
C        C      0.376950000000     0.611200000000     0.883950000000     0.06       
C        C      0.405700000000     0.590200000000     0.893900000000    -0.134      
C        C      0.403150000000     0.564000000000     0.852300000000     0.066      
C        C      0.360650000000     0.505200000000     0.668300000000     0.061      
C        C      0.341150000000     0.501750000000     0.625850000000    -0.137      
C        C      0.311100000000     0.521950000000     0.626700000000     0.057      
C        C      0.295350000000     0.624300000000     0.642250000000     0.359      
C        C      0.287800000000     0.642450000000     0.605550000000    -0.211      
C        C      0.244350000000     0.620900000000     0.569600000000    -0.216      
C        C      0.242750000000     0.635950000000     0.531700000000     0.347      
C        C      0.205550000000     0.727350000000     0.630350000000     0.068      
C        C      0.239650000000     0.722950000000     0.660800000000    -0.13       
C        C      0.278250000000     0.753050000000     0.662450000000     0.061      
C        C      0.383950000000     0.876950000000     0.611200000000     0.06       
C        C      0.393900000000     0.905700000000     0.590200000000    -0.134      
C        C      0.352300000000     0.903150000000     0.564000000000     0.066      
C        C      0.168300000000     0.860650000000     0.505200000000     0.061      
C        C      0.125850000000     0.841150000000     0.501750000000    -0.137      
C        C      0.126700000000     0.811100000000     0.521950000000     0.057      
C        C      0.142250000000     0.795350000000     0.624300000000     0.359      
C        C      0.105550000000     0.787800000000     0.642450000000    -0.211      
C        C      0.069600000000     0.744350000000     0.620900000000    -0.216      
C        C      0.031700000000     0.742750000000     0.635950000000     0.347      
C        C      0.130350000000     0.705550000000     0.727350000000     0.068      
C        C      0.160800000000     0.739650000000     0.722950000000    -0.13       
C        C      0.162450000000     0.778250000000     0.753050000000     0.061      
C        C      0.111200000000     0.883950000000     0.876950000000     0.06       
C        C      0.090200000000     0.893900000000     0.905700000000    -0.134      
C        C      0.064000000000     0.852300000000     0.903150000000     0.066      
C        C      0.005200000000     0.668300000000     0.860650000000     0.061      
C        C      0.001750000000     0.625850000000     0.841150000000    -0.137      
C        C      0.021950000000     0.626700000000     0.811100000000     0.057      
C        C      0.124300000000     0.642250000000     0.795350000000     0.359      
C        C      0.142450000000     0.605550000000     0.787800000000    -0.211      
C        C      0.120900000000     0.569600000000     0.744350000000    -0.216      
C        C      0.135950000000     0.531700000000     0.742750000000     0.347      
N        N      0.242350000000     0.885750000000     0.777750000000    -0.205      
N        N      0.226300000000     0.865750000000     0.732650000000    -0.209      
N        N      0.141450000000     0.900300000000     0.660400000000    -0.216      
N        N      0.124300000000     0.929500000000     0.679400000000    -0.212      
N        N      0.156450000000     0.972500000000     0.805550000000    -0.211      
N        N      0.186650000000     0.962050000000     0.830950000000    -0.205      
N        N      0.277750000000     0.742350000000     0.885750000000    -0.205      
N        N      0.232650000000     0.726300000000     0.865750000000    -0.209      
N        N      0.160400000000     0.641450000000     0.900300000000    -0.216      
N        N      0.179400000000     0.624300000000     0.929500000000    -0.212      
N        N      0.305550000000     0.656450000000     0.972500000000    -0.211      
N        N      0.330950000000     0.686650000000     0.962050000000    -0.205      
N        N      0.385750000000     0.777750000000     0.742350000000    -0.205      
N        N      0.365750000000     0.732650000000     0.726300000000    -0.209      
N        N      0.400300000000     0.660400000000     0.641450000000    -0.216      
N        N      0.429500000000     0.679400000000     0.624300000000    -0.212      
N        N      0.472500000000     0.805550000000     0.656450000000    -0.211      
N        N      0.462050000000     0.830950000000     0.686650000000    -0.205      
N        N      0.257650000000     0.614250000000     0.722250000000    -0.205      
N        N      0.273700000000     0.634250000000     0.767350000000    -0.209      
N        N      0.358550000000     0.599700000000     0.839600000000    -0.216      
N        N      0.375700000000     0.570500000000     0.820600000000    -0.212      
N        N      0.343550000000     0.527500000000     0.694450000000    -0.211      
N        N      0.313350000000     0.537950000000     0.669050000000    -0.205      
N        N      0.222250000000     0.757650000000     0.614250000000    -0.205      
N        N      0.267350000000     0.773700000000     0.634250000000    -0.209      
N        N      0.339600000000     0.858550000000     0.599700000000    -0.216      
N        N      0.320600000000     0.875700000000     0.570500000000    -0.212      
N        N      0.194450000000     0.843550000000     0.527500000000    -0.211      
N        N      0.169050000000     0.813350000000     0.537950000000    -0.205      
N        N      0.114250000000     0.722250000000     0.757650000000    -0.205      
N        N      0.134250000000     0.767350000000     0.773700000000    -0.209      
N        N      0.099700000000     0.839600000000     0.858550000000    -0.216      
N        N      0.070500000000     0.820600000000     0.875700000000    -0.212      
N        N      0.027500000000     0.694450000000     0.843550000000    -0.211      
N        N      0.037950000000     0.669050000000     0.813350000000    -0.205      
O        O      0.234850000000     0.909600000000     0.861000000000    -0.408      
O        O      0.168000000000     0.857350000000     0.824850000000    -0.472      
O        O      0.263150000000     0.892450000000     0.505850000000    -0.399      
O        O      0.251850000000     0.825000000000     0.962800000000    -0.363      
O        O      0.192050000000     0.931650000000     0.749150000000    -0.635      
O        O      0.361000000000     0.734850000000     0.909600000000    -0.408      
O        O      0.324850000000     0.668000000000     0.857350000000    -0.472      
O        O      0.005850000000     0.763150000000     0.892450000000    -0.399      
O        O      0.462800000000     0.751850000000     0.825000000000    -0.363      
O        O      0.249150000000     0.692050000000     0.931650000000    -0.635      
O        O      0.409600000000     0.861000000000     0.734850000000    -0.408      
O        O      0.357350000000     0.824850000000     0.668000000000    -0.472      
O        O      0.392450000000     0.505850000000     0.763150000000    -0.399      
O        O      0.325000000000     0.962800000000     0.751850000000    -0.363      
O        O      0.431650000000     0.749150000000     0.692050000000    -0.635      
O        O      0.265150000000     0.590400000000     0.639000000000    -0.408      
O        O      0.332000000000     0.642650000000     0.675150000000    -0.472      
O        O      0.236850000000     0.607550000000     0.994150000000    -0.399      
O        O      0.248150000000     0.675000000000     0.537200000000    -0.363      
O        O      0.307950000000     0.568350000000     0.750850000000    -0.635      
O        O      0.139000000000     0.765150000000     0.590400000000    -0.408      
O        O      0.175150000000     0.832000000000     0.642650000000    -0.472      
O        O      0.494150000000     0.736850000000     0.607550000000    -0.399      
O        O      0.037200000000     0.748150000000     0.675000000000    -0.363      
O        O      0.250850000000     0.807950000000     0.568350000000    -0.635      
O        O      0.090400000000     0.639000000000     0.765150000000    -0.408      
O        O      0.142650000000     0.675150000000     0.832000000000    -0.472      
O        O      0.107550000000     0.994150000000     0.736850000000    -0.399      
O        O      0.175000000000     0.537200000000     0.748150000000    -0.363      
O        O      0.068350000000     0.750850000000     0.807950000000    -0.635      
Cu       Cu     0.717350000000     0.424960000000     0.306950000000     0.877      
Cu       Cu     0.685660000000     0.383525000000     0.195035000000     0.87       
Cu       Cu     0.643880000000     0.455970000000     0.242955000000     0.88       
Cu       Cu     0.806950000000     0.217350000000     0.424960000000     0.877      
Cu       Cu     0.695035000000     0.185660000000     0.383525000000     0.87       
Cu       Cu     0.742955000000     0.143880000000     0.455970000000     0.88       
Cu       Cu     0.924960000000     0.306950000000     0.217350000000     0.878      
Cu       Cu     0.883525000000     0.195035000000     0.185660000000     0.871      
Cu       Cu     0.955970000000     0.242955000000     0.143880000000     0.881      
Cu       Cu     0.782650000000     0.075040000000     0.193050000000     0.878      
Cu       Cu     0.814340000000     0.116475000000     0.304965000000     0.871      
Cu       Cu     0.856120000000     0.044030000000     0.257045000000     0.881      
Cu       Cu     0.693050000000     0.282650000000     0.075040000000     0.878      
Cu       Cu     0.804965000000     0.314340000000     0.116475000000     0.871      
Cu       Cu     0.757045000000     0.356120000000     0.044030000000     0.881      
Cu       Cu     0.575040000000     0.193050000000     0.282650000000     0.878      
Cu       Cu     0.616475000000     0.304965000000     0.314340000000     0.871      
Cu       Cu     0.544030000000     0.257045000000     0.356120000000     0.881      
H        H      0.788800000000     0.377950000000     0.325200000000    -0.001      
H        H      0.796250000000     0.323100000000     0.262800000000     0.071      
H        H      0.741800000000     0.319400000000     0.192400000000    -0.004      
H        H      0.629200000000     0.368900000000     0.094700000000    -0          
H        H      0.576650000000     0.407200000000     0.077600000000     0.069      
H        H      0.581200000000     0.455450000000     0.152300000000     0.002      
H        H      0.617200000000     0.006250000000     0.322000000000     0.002      
H        H      0.652800000000     0.012000000000     0.399300000000     0.07       
H        H      0.708150000000     0.475700000000     0.398250000000     0.003      
H        H      0.707100000000     0.325650000000     0.380900000000     0.068      
H        H      0.689400000000     0.359250000000     0.407600000000     0.072      
H        H      0.778300000000     0.372750000000     0.418750000000     0.098      
H        H      0.763300000000     0.411650000000     0.441200000000     0.108      
H        H      0.717600000000     0.456900000000     0.251450000000     0.097      
H        H      0.825200000000     0.288800000000     0.377950000000    -0.001      
H        H      0.762800000000     0.296250000000     0.323100000000     0.071      
H        H      0.692400000000     0.241800000000     0.319400000000    -0.004      
H        H      0.594700000000     0.129200000000     0.368900000000    -0          
H        H      0.577600000000     0.076650000000     0.407200000000     0.069      
H        H      0.652300000000     0.081200000000     0.455450000000     0.002      
H        H      0.822000000000     0.117200000000     0.006250000000     0.002      
H        H      0.899300000000     0.152800000000     0.012000000000     0.07       
H        H      0.898250000000     0.208150000000     0.475700000000     0.003      
H        H      0.880900000000     0.207100000000     0.325650000000     0.068      
H        H      0.907600000000     0.189400000000     0.359250000000     0.072      
H        H      0.918750000000     0.278300000000     0.372750000000     0.098      
H        H      0.941200000000     0.263300000000     0.411650000000     0.108      
H        H      0.751450000000     0.217600000000     0.456900000000     0.097      
H        H      0.877950000000     0.325200000000     0.288800000000    -0.001      
H        H      0.823100000000     0.262800000000     0.296250000000     0.071      
H        H      0.819400000000     0.192400000000     0.241800000000    -0.004      
H        H      0.868900000000     0.094700000000     0.129200000000    -0          
H        H      0.907200000000     0.077600000000     0.076650000000     0.069      
H        H      0.955450000000     0.152300000000     0.081200000000     0.002      
H        H      0.506250000000     0.322000000000     0.117200000000     0.002      
H        H      0.512000000000     0.399300000000     0.152800000000     0.07       
H        H      0.975700000000     0.398250000000     0.208150000000     0.003      
H        H      0.825650000000     0.380900000000     0.207100000000     0.068      
H        H      0.859250000000     0.407600000000     0.189400000000     0.072      
H        H      0.872750000000     0.418750000000     0.278300000000     0.098      
H        H      0.911650000000     0.441200000000     0.263300000000     0.108      
H        H      0.956900000000     0.251450000000     0.217600000000     0.097      
H        H      0.711200000000     0.122050000000     0.174800000000    -0.001      
H        H      0.703750000000     0.176900000000     0.237200000000     0.071      
H        H      0.758200000000     0.180600000000     0.307600000000    -0.004      
H        H      0.870800000000     0.131100000000     0.405300000000    -0          
H        H      0.923350000000     0.092800000000     0.422400000000     0.069      
H        H      0.918800000000     0.044550000000     0.347700000000     0.002      
H        H      0.882800000000     0.493750000000     0.178000000000     0.002      
H        H      0.847200000000     0.488000000000     0.100700000000     0.07       
H        H      0.791850000000     0.024300000000     0.101750000000     0.003      
H        H      0.792900000000     0.174350000000     0.119100000000     0.068      
H        H      0.810600000000     0.140750000000     0.092400000000     0.072      
H        H      0.721700000000     0.127250000000     0.081250000000     0.098      
H        H      0.736700000000     0.088350000000     0.058800000000     0.108      
H        H      0.782400000000     0.043100000000     0.248550000000     0.097      
H        H      0.674800000000     0.211200000000     0.122050000000    -0.001      
H        H      0.737200000000     0.203750000000     0.176900000000     0.071      
H        H      0.807600000000     0.258200000000     0.180600000000    -0.004      
H        H      0.905300000000     0.370800000000     0.131100000000    -0          
H        H      0.922400000000     0.423350000000     0.092800000000     0.069      
H        H      0.847700000000     0.418800000000     0.044550000000     0.002      
H        H      0.678000000000     0.382800000000     0.493750000000     0.002      
H        H      0.600700000000     0.347200000000     0.488000000000     0.07       
H        H      0.601750000000     0.291850000000     0.024300000000     0.003      
H        H      0.619100000000     0.292900000000     0.174350000000     0.068      
H        H      0.592400000000     0.310600000000     0.140750000000     0.072      
H        H      0.581250000000     0.221700000000     0.127250000000     0.098      
H        H      0.558800000000     0.236700000000     0.088350000000     0.108      
H        H      0.748550000000     0.282400000000     0.043100000000     0.097      
H        H      0.622050000000     0.174800000000     0.211200000000    -0.001      
H        H      0.676900000000     0.237200000000     0.203750000000     0.071      
H        H      0.680600000000     0.307600000000     0.258200000000    -0.004      
H        H      0.631100000000     0.405300000000     0.370800000000    -0          
H        H      0.592800000000     0.422400000000     0.423350000000     0.069      
H        H      0.544550000000     0.347700000000     0.418800000000     0.002      
H        H      0.993750000000     0.178000000000     0.382800000000     0.002      
H        H      0.988000000000     0.100700000000     0.347200000000     0.07       
H        H      0.524300000000     0.101750000000     0.291850000000     0.003      
H        H      0.674350000000     0.119100000000     0.292900000000     0.068      
H        H      0.640750000000     0.092400000000     0.310600000000     0.072      
H        H      0.627250000000     0.081250000000     0.221700000000     0.098      
H        H      0.588350000000     0.058800000000     0.236700000000     0.108      
H        H      0.543100000000     0.248550000000     0.282400000000     0.097      
C        C      0.772650000000     0.369650000000     0.294450000000     0.068      
C        C      0.777050000000     0.339200000000     0.260350000000    -0.13       
C        C      0.746950000000     0.337550000000     0.221750000000     0.061      
C        C      0.623050000000     0.388800000000     0.116050000000     0.06       
C        C      0.594300000000     0.409800000000     0.106100000000    -0.134      
C        C      0.596850000000     0.436000000000     0.147700000000     0.066      
C        C      0.639350000000     0.494800000000     0.331700000000     0.061      
C        C      0.658850000000     0.498250000000     0.374150000000    -0.137      
C        C      0.688900000000     0.478050000000     0.373300000000     0.057      
C        C      0.704650000000     0.375700000000     0.357750000000     0.359      
C        C      0.712200000000     0.357550000000     0.394450000000    -0.211      
C        C      0.755650000000     0.379100000000     0.430400000000    -0.216      
C        C      0.757250000000     0.364050000000     0.468300000000     0.347      
C        C      0.794450000000     0.272650000000     0.369650000000     0.068      
C        C      0.760350000000     0.277050000000     0.339200000000    -0.13       
C        C      0.721750000000     0.246950000000     0.337550000000     0.061      
C        C      0.616050000000     0.123050000000     0.388800000000     0.06       
C        C      0.606100000000     0.094300000000     0.409800000000    -0.134      
C        C      0.647700000000     0.096850000000     0.436000000000     0.066      
C        C      0.831700000000     0.139350000000     0.494800000000     0.061      
C        C      0.874150000000     0.158850000000     0.498250000000    -0.137      
C        C      0.873300000000     0.188900000000     0.478050000000     0.057      
C        C      0.857750000000     0.204650000000     0.375700000000     0.359      
C        C      0.894450000000     0.212200000000     0.357550000000    -0.211      
C        C      0.930400000000     0.255650000000     0.379100000000    -0.216      
C        C      0.968300000000     0.257250000000     0.364050000000     0.347      
C        C      0.869650000000     0.294450000000     0.272650000000     0.068      
C        C      0.839200000000     0.260350000000     0.277050000000    -0.13       
C        C      0.837550000000     0.221750000000     0.246950000000     0.061      
C        C      0.888800000000     0.116050000000     0.123050000000     0.06       
C        C      0.909800000000     0.106100000000     0.094300000000    -0.134      
C        C      0.936000000000     0.147700000000     0.096850000000     0.066      
C        C      0.994800000000     0.331700000000     0.139350000000     0.061      
C        C      0.998250000000     0.374150000000     0.158850000000    -0.137      
C        C      0.978050000000     0.373300000000     0.188900000000     0.057      
C        C      0.875700000000     0.357750000000     0.204650000000     0.359      
C        C      0.857550000000     0.394450000000     0.212200000000    -0.211      
C        C      0.879100000000     0.430400000000     0.255650000000    -0.216      
C        C      0.864050000000     0.468300000000     0.257250000000     0.347      
C        C      0.727350000000     0.130350000000     0.205550000000     0.068      
C        C      0.722950000000     0.160800000000     0.239650000000    -0.13       
C        C      0.753050000000     0.162450000000     0.278250000000     0.061      
C        C      0.876950000000     0.111200000000     0.383950000000     0.06       
C        C      0.905700000000     0.090200000000     0.393900000000    -0.134      
C        C      0.903150000000     0.064000000000     0.352300000000     0.066      
C        C      0.860650000000     0.005200000000     0.168300000000     0.061      
C        C      0.841150000000     0.001750000000     0.125850000000    -0.137      
C        C      0.811100000000     0.021950000000     0.126700000000     0.057      
C        C      0.795350000000     0.124300000000     0.142250000000     0.359      
C        C      0.787800000000     0.142450000000     0.105550000000    -0.211      
C        C      0.744350000000     0.120900000000     0.069600000000    -0.216      
C        C      0.742750000000     0.135950000000     0.031700000000     0.347      
C        C      0.705550000000     0.227350000000     0.130350000000     0.068      
C        C      0.739650000000     0.222950000000     0.160800000000    -0.13       
C        C      0.778250000000     0.253050000000     0.162450000000     0.061      
C        C      0.883950000000     0.376950000000     0.111200000000     0.06       
C        C      0.893900000000     0.405700000000     0.090200000000    -0.134      
C        C      0.852300000000     0.403150000000     0.064000000000     0.066      
C        C      0.668300000000     0.360650000000     0.005200000000     0.061      
C        C      0.625850000000     0.341150000000     0.001750000000    -0.137      
C        C      0.626700000000     0.311100000000     0.021950000000     0.057      
C        C      0.642250000000     0.295350000000     0.124300000000     0.359      
C        C      0.605550000000     0.287800000000     0.142450000000    -0.211      
C        C      0.569600000000     0.244350000000     0.120900000000    -0.216      
C        C      0.531700000000     0.242750000000     0.135950000000     0.347      
C        C      0.630350000000     0.205550000000     0.227350000000     0.068      
C        C      0.660800000000     0.239650000000     0.222950000000    -0.13       
C        C      0.662450000000     0.278250000000     0.253050000000     0.061      
C        C      0.611200000000     0.383950000000     0.376950000000     0.06       
C        C      0.590200000000     0.393900000000     0.405700000000    -0.134      
C        C      0.564000000000     0.352300000000     0.403150000000     0.066      
C        C      0.505200000000     0.168300000000     0.360650000000     0.061      
C        C      0.501750000000     0.125850000000     0.341150000000    -0.137      
C        C      0.521950000000     0.126700000000     0.311100000000     0.057      
C        C      0.624300000000     0.142250000000     0.295350000000     0.359      
C        C      0.642450000000     0.105550000000     0.287800000000    -0.211      
C        C      0.620900000000     0.069600000000     0.244350000000    -0.216      
C        C      0.635950000000     0.031700000000     0.242750000000     0.347      
N        N      0.742350000000     0.385750000000     0.277750000000    -0.205      
N        N      0.726300000000     0.365750000000     0.232650000000    -0.209      
N        N      0.641450000000     0.400300000000     0.160400000000    -0.216      
N        N      0.624300000000     0.429500000000     0.179400000000    -0.212      
N        N      0.656450000000     0.472500000000     0.305550000000    -0.211      
N        N      0.686650000000     0.462050000000     0.330950000000    -0.205      
N        N      0.777750000000     0.242350000000     0.385750000000    -0.205      
N        N      0.732650000000     0.226300000000     0.365750000000    -0.209      
N        N      0.660400000000     0.141450000000     0.400300000000    -0.216      
N        N      0.679400000000     0.124300000000     0.429500000000    -0.212      
N        N      0.805550000000     0.156450000000     0.472500000000    -0.211      
N        N      0.830950000000     0.186650000000     0.462050000000    -0.205      
N        N      0.885750000000     0.277750000000     0.242350000000    -0.205      
N        N      0.865750000000     0.232650000000     0.226300000000    -0.209      
N        N      0.900300000000     0.160400000000     0.141450000000    -0.216      
N        N      0.929500000000     0.179400000000     0.124300000000    -0.212      
N        N      0.972500000000     0.305550000000     0.156450000000    -0.211      
N        N      0.962050000000     0.330950000000     0.186650000000    -0.205      
N        N      0.757650000000     0.114250000000     0.222250000000    -0.205      
N        N      0.773700000000     0.134250000000     0.267350000000    -0.209      
N        N      0.858550000000     0.099700000000     0.339600000000    -0.216      
N        N      0.875700000000     0.070500000000     0.320600000000    -0.212      
N        N      0.843550000000     0.027500000000     0.194450000000    -0.211      
N        N      0.813350000000     0.037950000000     0.169050000000    -0.205      
N        N      0.722250000000     0.257650000000     0.114250000000    -0.205      
N        N      0.767350000000     0.273700000000     0.134250000000    -0.209      
N        N      0.839600000000     0.358550000000     0.099700000000    -0.216      
N        N      0.820600000000     0.375700000000     0.070500000000    -0.212      
N        N      0.694450000000     0.343550000000     0.027500000000    -0.211      
N        N      0.669050000000     0.313350000000     0.037950000000    -0.205      
N        N      0.614250000000     0.222250000000     0.257650000000    -0.205      
N        N      0.634250000000     0.267350000000     0.273700000000    -0.209      
N        N      0.599700000000     0.339600000000     0.358550000000    -0.216      
N        N      0.570500000000     0.320600000000     0.375700000000    -0.212      
N        N      0.527500000000     0.194450000000     0.343550000000    -0.211      
N        N      0.537950000000     0.169050000000     0.313350000000    -0.205      
O        O      0.734850000000     0.409600000000     0.361000000000    -0.408      
O        O      0.668000000000     0.357350000000     0.324850000000    -0.472      
O        O      0.763150000000     0.392450000000     0.005850000000    -0.399      
O        O      0.751850000000     0.325000000000     0.462800000000    -0.363      
O        O      0.692050000000     0.431650000000     0.249150000000    -0.635      
O        O      0.861000000000     0.234850000000     0.409600000000    -0.408      
O        O      0.824850000000     0.168000000000     0.357350000000    -0.472      
O        O      0.505850000000     0.263150000000     0.392450000000    -0.399      
O        O      0.962800000000     0.251850000000     0.325000000000    -0.363      
O        O      0.749150000000     0.192050000000     0.431650000000    -0.635      
O        O      0.909600000000     0.361000000000     0.234850000000    -0.408      
O        O      0.857350000000     0.324850000000     0.168000000000    -0.472      
O        O      0.892450000000     0.005850000000     0.263150000000    -0.399      
O        O      0.825000000000     0.462800000000     0.251850000000    -0.363      
O        O      0.931650000000     0.249150000000     0.192050000000    -0.635      
O        O      0.765150000000     0.090400000000     0.139000000000    -0.408      
O        O      0.832000000000     0.142650000000     0.175150000000    -0.472      
O        O      0.736850000000     0.107550000000     0.494150000000    -0.399      
O        O      0.748150000000     0.175000000000     0.037200000000    -0.363      
O        O      0.807950000000     0.068350000000     0.250850000000    -0.635      
O        O      0.639000000000     0.265150000000     0.090400000000    -0.408      
O        O      0.675150000000     0.332000000000     0.142650000000    -0.472      
O        O      0.994150000000     0.236850000000     0.107550000000    -0.399      
O        O      0.537200000000     0.248150000000     0.175000000000    -0.363      
O        O      0.750850000000     0.307950000000     0.068350000000    -0.635      
O        O      0.590400000000     0.139000000000     0.265150000000    -0.408      
O        O      0.642650000000     0.175150000000     0.332000000000    -0.472      
O        O      0.607550000000     0.494150000000     0.236850000000    -0.399      
O        O      0.675000000000     0.037200000000     0.248150000000    -0.363      
O        O      0.568350000000     0.250850000000     0.307950000000    -0.635      
Cu       Cu     0.717350000000     0.424960000000     0.806950000000     0.877      
Cu       Cu     0.685660000000     0.383525000000     0.695035000000     0.87       
Cu       Cu     0.643880000000     0.455970000000     0.742955000000     0.88       
Cu       Cu     0.806950000000     0.217350000000     0.924960000000     0.877      
Cu       Cu     0.695035000000     0.185660000000     0.883525000000     0.87       
Cu       Cu     0.742955000000     0.143880000000     0.955970000000     0.88       
Cu       Cu     0.924960000000     0.306950000000     0.717350000000     0.878      
Cu       Cu     0.883525000000     0.195035000000     0.685660000000     0.871      
Cu       Cu     0.955970000000     0.242955000000     0.643880000000     0.881      
Cu       Cu     0.782650000000     0.075040000000     0.693050000000     0.878      
Cu       Cu     0.814340000000     0.116475000000     0.804965000000     0.871      
Cu       Cu     0.856120000000     0.044030000000     0.757045000000     0.881      
Cu       Cu     0.693050000000     0.282650000000     0.575040000000     0.878      
Cu       Cu     0.804965000000     0.314340000000     0.616475000000     0.871      
Cu       Cu     0.757045000000     0.356120000000     0.544030000000     0.881      
Cu       Cu     0.575040000000     0.193050000000     0.782650000000     0.878      
Cu       Cu     0.616475000000     0.304965000000     0.814340000000     0.871      
Cu       Cu     0.544030000000     0.257045000000     0.856120000000     0.881      
H        H      0.788800000000     0.377950000000     0.825200000000    -0.001      
H        H      0.796250000000     0.323100000000     0.762800000000     0.071      
H        H      0.741800000000     0.319400000000     0.692400000000    -0.004      
H        H      0.629200000000     0.368900000000     0.594700000000    -0          
H        H      0.576650000000     0.407200000000     0.577600000000     0.069      
H        H      0.581200000000     0.455450000000     0.652300000000     0.002      
H        H      0.617200000000     0.006250000000     0.822000000000     0.002      
H        H      0.652800000000     0.012000000000     0.899300000000     0.07       
H        H      0.708150000000     0.475700000000     0.898250000000     0.003      
H        H      0.707100000000     0.325650000000     0.880900000000     0.068      
H        H      0.689400000000     0.359250000000     0.907600000000     0.072      
H        H      0.778300000000     0.372750000000     0.918750000000     0.098      
H        H      0.763300000000     0.411650000000     0.941200000000     0.108      
H        H      0.717600000000     0.456900000000     0.751450000000     0.097      
H        H      0.825200000000     0.288800000000     0.877950000000    -0.001      
H        H      0.762800000000     0.296250000000     0.823100000000     0.071      
H        H      0.692400000000     0.241800000000     0.819400000000    -0.004      
H        H      0.594700000000     0.129200000000     0.868900000000    -0          
H        H      0.577600000000     0.076650000000     0.907200000000     0.069      
H        H      0.652300000000     0.081200000000     0.955450000000     0.002      
H        H      0.822000000000     0.117200000000     0.506250000000     0.002      
H        H      0.899300000000     0.152800000000     0.512000000000     0.07       
H        H      0.898250000000     0.208150000000     0.975700000000     0.003      
H        H      0.880900000000     0.207100000000     0.825650000000     0.068      
H        H      0.907600000000     0.189400000000     0.859250000000     0.072      
H        H      0.918750000000     0.278300000000     0.872750000000     0.098      
H        H      0.941200000000     0.263300000000     0.911650000000     0.108      
H        H      0.751450000000     0.217600000000     0.956900000000     0.097      
H        H      0.877950000000     0.325200000000     0.788800000000    -0.001      
H        H      0.823100000000     0.262800000000     0.796250000000     0.071      
H        H      0.819400000000     0.192400000000     0.741800000000    -0.004      
H        H      0.868900000000     0.094700000000     0.629200000000    -0          
H        H      0.907200000000     0.077600000000     0.576650000000     0.069      
H        H      0.955450000000     0.152300000000     0.581200000000     0.002      
H        H      0.506250000000     0.322000000000     0.617200000000     0.002      
H        H      0.512000000000     0.399300000000     0.652800000000     0.07       
H        H      0.975700000000     0.398250000000     0.708150000000     0.003      
H        H      0.825650000000     0.380900000000     0.707100000000     0.068      
H        H      0.859250000000     0.407600000000     0.689400000000     0.072      
H        H      0.872750000000     0.418750000000     0.778300000000     0.098      
H        H      0.911650000000     0.441200000000     0.763300000000     0.108      
H        H      0.956900000000     0.251450000000     0.717600000000     0.097      
H        H      0.711200000000     0.122050000000     0.674800000000    -0.001      
H        H      0.703750000000     0.176900000000     0.737200000000     0.071      
H        H      0.758200000000     0.180600000000     0.807600000000    -0.004      
H        H      0.870800000000     0.131100000000     0.905300000000    -0          
H        H      0.923350000000     0.092800000000     0.922400000000     0.069      
H        H      0.918800000000     0.044550000000     0.847700000000     0.002      
H        H      0.882800000000     0.493750000000     0.678000000000     0.002      
H        H      0.847200000000     0.488000000000     0.600700000000     0.07       
H        H      0.791850000000     0.024300000000     0.601750000000     0.003      
H        H      0.792900000000     0.174350000000     0.619100000000     0.068      
H        H      0.810600000000     0.140750000000     0.592400000000     0.072      
H        H      0.721700000000     0.127250000000     0.581250000000     0.098      
H        H      0.736700000000     0.088350000000     0.558800000000     0.108      
H        H      0.782400000000     0.043100000000     0.748550000000     0.097      
H        H      0.674800000000     0.211200000000     0.622050000000    -0.001      
H        H      0.737200000000     0.203750000000     0.676900000000     0.071      
H        H      0.807600000000     0.258200000000     0.680600000000    -0.004      
H        H      0.905300000000     0.370800000000     0.631100000000    -0          
H        H      0.922400000000     0.423350000000     0.592800000000     0.069      
H        H      0.847700000000     0.418800000000     0.544550000000     0.002      
H        H      0.678000000000     0.382800000000     0.993750000000     0.002      
H        H      0.600700000000     0.347200000000     0.988000000000     0.07       
H        H      0.601750000000     0.291850000000     0.524300000000     0.003      
H        H      0.619100000000     0.292900000000     0.674350000000     0.068      
H        H      0.592400000000     0.310600000000     0.640750000000     0.072      
H        H      0.581250000000     0.221700000000     0.627250000000     0.098      
H        H      0.558800000000     0.236700000000     0.588350000000     0.108      
H        H      0.748550000000     0.282400000000     0.543100000000     0.097      
H        H      0.622050000000     0.174800000000     0.711200000000    -0.001      
H        H      0.676900000000     0.237200000000     0.703750000000     0.071      
H        H      0.680600000000     0.307600000000     0.758200000000    -0.004      
H        H      0.631100000000     0.405300000000     0.870800000000    -0          
H        H      0.592800000000     0.422400000000     0.923350000000     0.069      
H        H      0.544550000000     0.347700000000     0.918800000000     0.002      
H        H      0.993750000000     0.178000000000     0.882800000000     0.002      
H        H      0.988000000000     0.100700000000     0.847200000000     0.07       
H        H      0.524300000000     0.101750000000     0.791850000000     0.003      
H        H      0.674350000000     0.119100000000     0.792900000000     0.068      
H        H      0.640750000000     0.092400000000     0.810600000000     0.072      
H        H      0.627250000000     0.081250000000     0.721700000000     0.098      
H        H      0.588350000000     0.058800000000     0.736700000000     0.108      
H        H      0.543100000000     0.248550000000     0.782400000000     0.097      
C        C      0.772650000000     0.369650000000     0.794450000000     0.068      
C        C      0.777050000000     0.339200000000     0.760350000000    -0.13       
C        C      0.746950000000     0.337550000000     0.721750000000     0.061      
C        C      0.623050000000     0.388800000000     0.616050000000     0.06       
C        C      0.594300000000     0.409800000000     0.606100000000    -0.134      
C        C      0.596850000000     0.436000000000     0.647700000000     0.066      
C        C      0.639350000000     0.494800000000     0.831700000000     0.061      
C        C      0.658850000000     0.498250000000     0.874150000000    -0.137      
C        C      0.688900000000     0.478050000000     0.873300000000     0.057      
C        C      0.704650000000     0.375700000000     0.857750000000     0.359      
C        C      0.712200000000     0.357550000000     0.894450000000    -0.211      
C        C      0.755650000000     0.379100000000     0.930400000000    -0.216      
C        C      0.757250000000     0.364050000000     0.968300000000     0.347      
C        C      0.794450000000     0.272650000000     0.869650000000     0.068      
C        C      0.760350000000     0.277050000000     0.839200000000    -0.13       
C        C      0.721750000000     0.246950000000     0.837550000000     0.061      
C        C      0.616050000000     0.123050000000     0.888800000000     0.06       
C        C      0.606100000000     0.094300000000     0.909800000000    -0.134      
C        C      0.647700000000     0.096850000000     0.936000000000     0.066      
C        C      0.831700000000     0.139350000000     0.994800000000     0.061      
C        C      0.874150000000     0.158850000000     0.998250000000    -0.137      
C        C      0.873300000000     0.188900000000     0.978050000000     0.057      
C        C      0.857750000000     0.204650000000     0.875700000000     0.359      
C        C      0.894450000000     0.212200000000     0.857550000000    -0.211      
C        C      0.930400000000     0.255650000000     0.879100000000    -0.216      
C        C      0.968300000000     0.257250000000     0.864050000000     0.347      
C        C      0.869650000000     0.294450000000     0.772650000000     0.068      
C        C      0.839200000000     0.260350000000     0.777050000000    -0.13       
C        C      0.837550000000     0.221750000000     0.746950000000     0.061      
C        C      0.888800000000     0.116050000000     0.623050000000     0.06       
C        C      0.909800000000     0.106100000000     0.594300000000    -0.134      
C        C      0.936000000000     0.147700000000     0.596850000000     0.066      
C        C      0.994800000000     0.331700000000     0.639350000000     0.061      
C        C      0.998250000000     0.374150000000     0.658850000000    -0.137      
C        C      0.978050000000     0.373300000000     0.688900000000     0.057      
C        C      0.875700000000     0.357750000000     0.704650000000     0.359      
C        C      0.857550000000     0.394450000000     0.712200000000    -0.211      
C        C      0.879100000000     0.430400000000     0.755650000000    -0.216      
C        C      0.864050000000     0.468300000000     0.757250000000     0.347      
C        C      0.727350000000     0.130350000000     0.705550000000     0.068      
C        C      0.722950000000     0.160800000000     0.739650000000    -0.13       
C        C      0.753050000000     0.162450000000     0.778250000000     0.061      
C        C      0.876950000000     0.111200000000     0.883950000000     0.06       
C        C      0.905700000000     0.090200000000     0.893900000000    -0.134      
C        C      0.903150000000     0.064000000000     0.852300000000     0.066      
C        C      0.860650000000     0.005200000000     0.668300000000     0.061      
C        C      0.841150000000     0.001750000000     0.625850000000    -0.137      
C        C      0.811100000000     0.021950000000     0.626700000000     0.057      
C        C      0.795350000000     0.124300000000     0.642250000000     0.359      
C        C      0.787800000000     0.142450000000     0.605550000000    -0.211      
C        C      0.744350000000     0.120900000000     0.569600000000    -0.216      
C        C      0.742750000000     0.135950000000     0.531700000000     0.347      
C        C      0.705550000000     0.227350000000     0.630350000000     0.068      
C        C      0.739650000000     0.222950000000     0.660800000000    -0.13       
C        C      0.778250000000     0.253050000000     0.662450000000     0.061      
C        C      0.883950000000     0.376950000000     0.611200000000     0.06       
C        C      0.893900000000     0.405700000000     0.590200000000    -0.134      
C        C      0.852300000000     0.403150000000     0.564000000000     0.066      
C        C      0.668300000000     0.360650000000     0.505200000000     0.061      
C        C      0.625850000000     0.341150000000     0.501750000000    -0.137      
C        C      0.626700000000     0.311100000000     0.521950000000     0.057      
C        C      0.642250000000     0.295350000000     0.624300000000     0.359      
C        C      0.605550000000     0.287800000000     0.642450000000    -0.211      
C        C      0.569600000000     0.244350000000     0.620900000000    -0.216      
C        C      0.531700000000     0.242750000000     0.635950000000     0.347      
C        C      0.630350000000     0.205550000000     0.727350000000     0.068      
C        C      0.660800000000     0.239650000000     0.722950000000    -0.13       
C        C      0.662450000000     0.278250000000     0.753050000000     0.061      
C        C      0.611200000000     0.383950000000     0.876950000000     0.06       
C        C      0.590200000000     0.393900000000     0.905700000000    -0.134      
C        C      0.564000000000     0.352300000000     0.903150000000     0.066      
C        C      0.505200000000     0.168300000000     0.860650000000     0.061      
C        C      0.501750000000     0.125850000000     0.841150000000    -0.137      
C        C      0.521950000000     0.126700000000     0.811100000000     0.057      
C        C      0.624300000000     0.142250000000     0.795350000000     0.359      
C        C      0.642450000000     0.105550000000     0.787800000000    -0.211      
C        C      0.620900000000     0.069600000000     0.744350000000    -0.216      
C        C      0.635950000000     0.031700000000     0.742750000000     0.347      
N        N      0.742350000000     0.385750000000     0.777750000000    -0.205      
N        N      0.726300000000     0.365750000000     0.732650000000    -0.209      
N        N      0.641450000000     0.400300000000     0.660400000000    -0.216      
N        N      0.624300000000     0.429500000000     0.679400000000    -0.212      
N        N      0.656450000000     0.472500000000     0.805550000000    -0.211      
N        N      0.686650000000     0.462050000000     0.830950000000    -0.205      
N        N      0.777750000000     0.242350000000     0.885750000000    -0.205      
N        N      0.732650000000     0.226300000000     0.865750000000    -0.209      
N        N      0.660400000000     0.141450000000     0.900300000000    -0.216      
N        N      0.679400000000     0.124300000000     0.929500000000    -0.212      
N        N      0.805550000000     0.156450000000     0.972500000000    -0.211      
N        N      0.830950000000     0.186650000000     0.962050000000    -0.205      
N        N      0.885750000000     0.277750000000     0.742350000000    -0.205      
N        N      0.865750000000     0.232650000000     0.726300000000    -0.209      
N        N      0.900300000000     0.160400000000     0.641450000000    -0.216      
N        N      0.929500000000     0.179400000000     0.624300000000    -0.212      
N        N      0.972500000000     0.305550000000     0.656450000000    -0.211      
N        N      0.962050000000     0.330950000000     0.686650000000    -0.205      
N        N      0.757650000000     0.114250000000     0.722250000000    -0.205      
N        N      0.773700000000     0.134250000000     0.767350000000    -0.209      
N        N      0.858550000000     0.099700000000     0.839600000000    -0.216      
N        N      0.875700000000     0.070500000000     0.820600000000    -0.212      
N        N      0.843550000000     0.027500000000     0.694450000000    -0.211      
N        N      0.813350000000     0.037950000000     0.669050000000    -0.205      
N        N      0.722250000000     0.257650000000     0.614250000000    -0.205      
N        N      0.767350000000     0.273700000000     0.634250000000    -0.209      
N        N      0.839600000000     0.358550000000     0.599700000000    -0.216      
N        N      0.820600000000     0.375700000000     0.570500000000    -0.212      
N        N      0.694450000000     0.343550000000     0.527500000000    -0.211      
N        N      0.669050000000     0.313350000000     0.537950000000    -0.205      
N        N      0.614250000000     0.222250000000     0.757650000000    -0.205      
N        N      0.634250000000     0.267350000000     0.773700000000    -0.209      
N        N      0.599700000000     0.339600000000     0.858550000000    -0.216      
N        N      0.570500000000     0.320600000000     0.875700000000    -0.212      
N        N      0.527500000000     0.194450000000     0.843550000000    -0.211      
N        N      0.537950000000     0.169050000000     0.813350000000    -0.205      
O        O      0.734850000000     0.409600000000     0.861000000000    -0.408      
O        O      0.668000000000     0.357350000000     0.824850000000    -0.472      
O        O      0.763150000000     0.392450000000     0.505850000000    -0.399      
O        O      0.751850000000     0.325000000000     0.962800000000    -0.363      
O        O      0.692050000000     0.431650000000     0.749150000000    -0.635      
O        O      0.861000000000     0.234850000000     0.909600000000    -0.408      
O        O      0.824850000000     0.168000000000     0.857350000000    -0.472      
O        O      0.505850000000     0.263150000000     0.892450000000    -0.399      
O        O      0.962800000000     0.251850000000     0.825000000000    -0.363      
O        O      0.749150000000     0.192050000000     0.931650000000    -0.635      
O        O      0.909600000000     0.361000000000     0.734850000000    -0.408      
O        O      0.857350000000     0.324850000000     0.668000000000    -0.472      
O        O      0.892450000000     0.005850000000     0.763150000000    -0.399      
O        O      0.825000000000     0.462800000000     0.751850000000    -0.363      
O        O      0.931650000000     0.249150000000     0.692050000000    -0.635      
O        O      0.765150000000     0.090400000000     0.639000000000    -0.408      
O        O      0.832000000000     0.142650000000     0.675150000000    -0.472      
O        O      0.736850000000     0.107550000000     0.994150000000    -0.399      
O        O      0.748150000000     0.175000000000     0.537200000000    -0.363      
O        O      0.807950000000     0.068350000000     0.750850000000    -0.635      
O        O      0.639000000000     0.265150000000     0.590400000000    -0.408      
O        O      0.675150000000     0.332000000000     0.642650000000    -0.472      
O        O      0.994150000000     0.236850000000     0.607550000000    -0.399      
O        O      0.537200000000     0.248150000000     0.675000000000    -0.363      
O        O      0.750850000000     0.307950000000     0.568350000000    -0.635      
O        O      0.590400000000     0.139000000000     0.765150000000    -0.408      
O        O      0.642650000000     0.175150000000     0.832000000000    -0.472      
O        O      0.607550000000     0.494150000000     0.736850000000    -0.399      
O        O      0.675000000000     0.037200000000     0.748150000000    -0.363      
O        O      0.568350000000     0.250850000000     0.807950000000    -0.635      
Cu       Cu     0.717350000000     0.924960000000     0.306950000000     0.877      
Cu       Cu     0.685660000000     0.883525000000     0.195035000000     0.87       
Cu       Cu     0.643880000000     0.955970000000     0.242955000000     0.88       
Cu       Cu     0.806950000000     0.717350000000     0.424960000000     0.877      
Cu       Cu     0.695035000000     0.685660000000     0.383525000000     0.87       
Cu       Cu     0.742955000000     0.643880000000     0.455970000000     0.88       
Cu       Cu     0.924960000000     0.806950000000     0.217350000000     0.878      
Cu       Cu     0.883525000000     0.695035000000     0.185660000000     0.871      
Cu       Cu     0.955970000000     0.742955000000     0.143880000000     0.881      
Cu       Cu     0.782650000000     0.575040000000     0.193050000000     0.878      
Cu       Cu     0.814340000000     0.616475000000     0.304965000000     0.871      
Cu       Cu     0.856120000000     0.544030000000     0.257045000000     0.881      
Cu       Cu     0.693050000000     0.782650000000     0.075040000000     0.878      
Cu       Cu     0.804965000000     0.814340000000     0.116475000000     0.871      
Cu       Cu     0.757045000000     0.856120000000     0.044030000000     0.881      
Cu       Cu     0.575040000000     0.693050000000     0.282650000000     0.878      
Cu       Cu     0.616475000000     0.804965000000     0.314340000000     0.871      
Cu       Cu     0.544030000000     0.757045000000     0.356120000000     0.881      
H        H      0.788800000000     0.877950000000     0.325200000000    -0.001      
H        H      0.796250000000     0.823100000000     0.262800000000     0.071      
H        H      0.741800000000     0.819400000000     0.192400000000    -0.004      
H        H      0.629200000000     0.868900000000     0.094700000000    -0          
H        H      0.576650000000     0.907200000000     0.077600000000     0.069      
H        H      0.581200000000     0.955450000000     0.152300000000     0.002      
H        H      0.617200000000     0.506250000000     0.322000000000     0.002      
H        H      0.652800000000     0.512000000000     0.399300000000     0.07       
H        H      0.708150000000     0.975700000000     0.398250000000     0.003      
H        H      0.707100000000     0.825650000000     0.380900000000     0.068      
H        H      0.689400000000     0.859250000000     0.407600000000     0.072      
H        H      0.778300000000     0.872750000000     0.418750000000     0.098      
H        H      0.763300000000     0.911650000000     0.441200000000     0.108      
H        H      0.717600000000     0.956900000000     0.251450000000     0.097      
H        H      0.825200000000     0.788800000000     0.377950000000    -0.001      
H        H      0.762800000000     0.796250000000     0.323100000000     0.071      
H        H      0.692400000000     0.741800000000     0.319400000000    -0.004      
H        H      0.594700000000     0.629200000000     0.368900000000    -0          
H        H      0.577600000000     0.576650000000     0.407200000000     0.069      
H        H      0.652300000000     0.581200000000     0.455450000000     0.002      
H        H      0.822000000000     0.617200000000     0.006250000000     0.002      
H        H      0.899300000000     0.652800000000     0.012000000000     0.07       
H        H      0.898250000000     0.708150000000     0.475700000000     0.003      
H        H      0.880900000000     0.707100000000     0.325650000000     0.068      
H        H      0.907600000000     0.689400000000     0.359250000000     0.072      
H        H      0.918750000000     0.778300000000     0.372750000000     0.098      
H        H      0.941200000000     0.763300000000     0.411650000000     0.108      
H        H      0.751450000000     0.717600000000     0.456900000000     0.097      
H        H      0.877950000000     0.825200000000     0.288800000000    -0.001      
H        H      0.823100000000     0.762800000000     0.296250000000     0.071      
H        H      0.819400000000     0.692400000000     0.241800000000    -0.004      
H        H      0.868900000000     0.594700000000     0.129200000000    -0          
H        H      0.907200000000     0.577600000000     0.076650000000     0.069      
H        H      0.955450000000     0.652300000000     0.081200000000     0.002      
H        H      0.506250000000     0.822000000000     0.117200000000     0.002      
H        H      0.512000000000     0.899300000000     0.152800000000     0.07       
H        H      0.975700000000     0.898250000000     0.208150000000     0.003      
H        H      0.825650000000     0.880900000000     0.207100000000     0.068      
H        H      0.859250000000     0.907600000000     0.189400000000     0.072      
H        H      0.872750000000     0.918750000000     0.278300000000     0.098      
H        H      0.911650000000     0.941200000000     0.263300000000     0.108      
H        H      0.956900000000     0.751450000000     0.217600000000     0.097      
H        H      0.711200000000     0.622050000000     0.174800000000    -0.001      
H        H      0.703750000000     0.676900000000     0.237200000000     0.071      
H        H      0.758200000000     0.680600000000     0.307600000000    -0.004      
H        H      0.870800000000     0.631100000000     0.405300000000    -0          
H        H      0.923350000000     0.592800000000     0.422400000000     0.069      
H        H      0.918800000000     0.544550000000     0.347700000000     0.002      
H        H      0.882800000000     0.993750000000     0.178000000000     0.002      
H        H      0.847200000000     0.988000000000     0.100700000000     0.07       
H        H      0.791850000000     0.524300000000     0.101750000000     0.003      
H        H      0.792900000000     0.674350000000     0.119100000000     0.068      
H        H      0.810600000000     0.640750000000     0.092400000000     0.072      
H        H      0.721700000000     0.627250000000     0.081250000000     0.098      
H        H      0.736700000000     0.588350000000     0.058800000000     0.108      
H        H      0.782400000000     0.543100000000     0.248550000000     0.097      
H        H      0.674800000000     0.711200000000     0.122050000000    -0.001      
H        H      0.737200000000     0.703750000000     0.176900000000     0.071      
H        H      0.807600000000     0.758200000000     0.180600000000    -0.004      
H        H      0.905300000000     0.870800000000     0.131100000000    -0          
H        H      0.922400000000     0.923350000000     0.092800000000     0.069      
H        H      0.847700000000     0.918800000000     0.044550000000     0.002      
H        H      0.678000000000     0.882800000000     0.493750000000     0.002      
H        H      0.600700000000     0.847200000000     0.488000000000     0.07       
H        H      0.601750000000     0.791850000000     0.024300000000     0.003      
H        H      0.619100000000     0.792900000000     0.174350000000     0.068      
H        H      0.592400000000     0.810600000000     0.140750000000     0.072      
H        H      0.581250000000     0.721700000000     0.127250000000     0.098      
H        H      0.558800000000     0.736700000000     0.088350000000     0.108      
H        H      0.748550000000     0.782400000000     0.043100000000     0.097      
H        H      0.622050000000     0.674800000000     0.211200000000    -0.001      
H        H      0.676900000000     0.737200000000     0.203750000000     0.071      
H        H      0.680600000000     0.807600000000     0.258200000000    -0.004      
H        H      0.631100000000     0.905300000000     0.370800000000    -0          
H        H      0.592800000000     0.922400000000     0.423350000000     0.069      
H        H      0.544550000000     0.847700000000     0.418800000000     0.002      
H        H      0.993750000000     0.678000000000     0.382800000000     0.002      
H        H      0.988000000000     0.600700000000     0.347200000000     0.07       
H        H      0.524300000000     0.601750000000     0.291850000000     0.003      
H        H      0.674350000000     0.619100000000     0.292900000000     0.068      
H        H      0.640750000000     0.592400000000     0.310600000000     0.072      
H        H      0.627250000000     0.581250000000     0.221700000000     0.098      
H        H      0.588350000000     0.558800000000     0.236700000000     0.108      
H        H      0.543100000000     0.748550000000     0.282400000000     0.097      
C        C      0.772650000000     0.869650000000     0.294450000000     0.068      
C        C      0.777050000000     0.839200000000     0.260350000000    -0.13       
C        C      0.746950000000     0.837550000000     0.221750000000     0.061      
C        C      0.623050000000     0.888800000000     0.116050000000     0.06       
C        C      0.594300000000     0.909800000000     0.106100000000    -0.134      
C        C      0.596850000000     0.936000000000     0.147700000000     0.066      
C        C      0.639350000000     0.994800000000     0.331700000000     0.061      
C        C      0.658850000000     0.998250000000     0.374150000000    -0.137      
C        C      0.688900000000     0.978050000000     0.373300000000     0.057      
C        C      0.704650000000     0.875700000000     0.357750000000     0.359      
C        C      0.712200000000     0.857550000000     0.394450000000    -0.211      
C        C      0.755650000000     0.879100000000     0.430400000000    -0.216      
C        C      0.757250000000     0.864050000000     0.468300000000     0.347      
C        C      0.794450000000     0.772650000000     0.369650000000     0.068      
C        C      0.760350000000     0.777050000000     0.339200000000    -0.13       
C        C      0.721750000000     0.746950000000     0.337550000000     0.061      
C        C      0.616050000000     0.623050000000     0.388800000000     0.06       
C        C      0.606100000000     0.594300000000     0.409800000000    -0.134      
C        C      0.647700000000     0.596850000000     0.436000000000     0.066      
C        C      0.831700000000     0.639350000000     0.494800000000     0.061      
C        C      0.874150000000     0.658850000000     0.498250000000    -0.137      
C        C      0.873300000000     0.688900000000     0.478050000000     0.057      
C        C      0.857750000000     0.704650000000     0.375700000000     0.359      
C        C      0.894450000000     0.712200000000     0.357550000000    -0.211      
C        C      0.930400000000     0.755650000000     0.379100000000    -0.216      
C        C      0.968300000000     0.757250000000     0.364050000000     0.347      
C        C      0.869650000000     0.794450000000     0.272650000000     0.068      
C        C      0.839200000000     0.760350000000     0.277050000000    -0.13       
C        C      0.837550000000     0.721750000000     0.246950000000     0.061      
C        C      0.888800000000     0.616050000000     0.123050000000     0.06       
C        C      0.909800000000     0.606100000000     0.094300000000    -0.134      
C        C      0.936000000000     0.647700000000     0.096850000000     0.066      
C        C      0.994800000000     0.831700000000     0.139350000000     0.061      
C        C      0.998250000000     0.874150000000     0.158850000000    -0.137      
C        C      0.978050000000     0.873300000000     0.188900000000     0.057      
C        C      0.875700000000     0.857750000000     0.204650000000     0.359      
C        C      0.857550000000     0.894450000000     0.212200000000    -0.211      
C        C      0.879100000000     0.930400000000     0.255650000000    -0.216      
C        C      0.864050000000     0.968300000000     0.257250000000     0.347      
C        C      0.727350000000     0.630350000000     0.205550000000     0.068      
C        C      0.722950000000     0.660800000000     0.239650000000    -0.13       
C        C      0.753050000000     0.662450000000     0.278250000000     0.061      
C        C      0.876950000000     0.611200000000     0.383950000000     0.06       
C        C      0.905700000000     0.590200000000     0.393900000000    -0.134      
C        C      0.903150000000     0.564000000000     0.352300000000     0.066      
C        C      0.860650000000     0.505200000000     0.168300000000     0.061      
C        C      0.841150000000     0.501750000000     0.125850000000    -0.137      
C        C      0.811100000000     0.521950000000     0.126700000000     0.057      
C        C      0.795350000000     0.624300000000     0.142250000000     0.359      
C        C      0.787800000000     0.642450000000     0.105550000000    -0.211      
C        C      0.744350000000     0.620900000000     0.069600000000    -0.216      
C        C      0.742750000000     0.635950000000     0.031700000000     0.347      
C        C      0.705550000000     0.727350000000     0.130350000000     0.068      
C        C      0.739650000000     0.722950000000     0.160800000000    -0.13       
C        C      0.778250000000     0.753050000000     0.162450000000     0.061      
C        C      0.883950000000     0.876950000000     0.111200000000     0.06       
C        C      0.893900000000     0.905700000000     0.090200000000    -0.134      
C        C      0.852300000000     0.903150000000     0.064000000000     0.066      
C        C      0.668300000000     0.860650000000     0.005200000000     0.061      
C        C      0.625850000000     0.841150000000     0.001750000000    -0.137      
C        C      0.626700000000     0.811100000000     0.021950000000     0.057      
C        C      0.642250000000     0.795350000000     0.124300000000     0.359      
C        C      0.605550000000     0.787800000000     0.142450000000    -0.211      
C        C      0.569600000000     0.744350000000     0.120900000000    -0.216      
C        C      0.531700000000     0.742750000000     0.135950000000     0.347      
C        C      0.630350000000     0.705550000000     0.227350000000     0.068      
C        C      0.660800000000     0.739650000000     0.222950000000    -0.13       
C        C      0.662450000000     0.778250000000     0.253050000000     0.061      
C        C      0.611200000000     0.883950000000     0.376950000000     0.06       
C        C      0.590200000000     0.893900000000     0.405700000000    -0.134      
C        C      0.564000000000     0.852300000000     0.403150000000     0.066      
C        C      0.505200000000     0.668300000000     0.360650000000     0.061      
C        C      0.501750000000     0.625850000000     0.341150000000    -0.137      
C        C      0.521950000000     0.626700000000     0.311100000000     0.057      
C        C      0.624300000000     0.642250000000     0.295350000000     0.359      
C        C      0.642450000000     0.605550000000     0.287800000000    -0.211      
C        C      0.620900000000     0.569600000000     0.244350000000    -0.216      
C        C      0.635950000000     0.531700000000     0.242750000000     0.347      
N        N      0.742350000000     0.885750000000     0.277750000000    -0.205      
N        N      0.726300000000     0.865750000000     0.232650000000    -0.209      
N        N      0.641450000000     0.900300000000     0.160400000000    -0.216      
N        N      0.624300000000     0.929500000000     0.179400000000    -0.212      
N        N      0.656450000000     0.972500000000     0.305550000000    -0.211      
N        N      0.686650000000     0.962050000000     0.330950000000    -0.205      
N        N      0.777750000000     0.742350000000     0.385750000000    -0.205      
N        N      0.732650000000     0.726300000000     0.365750000000    -0.209      
N        N      0.660400000000     0.641450000000     0.400300000000    -0.216      
N        N      0.679400000000     0.624300000000     0.429500000000    -0.212      
N        N      0.805550000000     0.656450000000     0.472500000000    -0.211      
N        N      0.830950000000     0.686650000000     0.462050000000    -0.205      
N        N      0.885750000000     0.777750000000     0.242350000000    -0.205      
N        N      0.865750000000     0.732650000000     0.226300000000    -0.209      
N        N      0.900300000000     0.660400000000     0.141450000000    -0.216      
N        N      0.929500000000     0.679400000000     0.124300000000    -0.212      
N        N      0.972500000000     0.805550000000     0.156450000000    -0.211      
N        N      0.962050000000     0.830950000000     0.186650000000    -0.205      
N        N      0.757650000000     0.614250000000     0.222250000000    -0.205      
N        N      0.773700000000     0.634250000000     0.267350000000    -0.209      
N        N      0.858550000000     0.599700000000     0.339600000000    -0.216      
N        N      0.875700000000     0.570500000000     0.320600000000    -0.212      
N        N      0.843550000000     0.527500000000     0.194450000000    -0.211      
N        N      0.813350000000     0.537950000000     0.169050000000    -0.205      
N        N      0.722250000000     0.757650000000     0.114250000000    -0.205      
N        N      0.767350000000     0.773700000000     0.134250000000    -0.209      
N        N      0.839600000000     0.858550000000     0.099700000000    -0.216      
N        N      0.820600000000     0.875700000000     0.070500000000    -0.212      
N        N      0.694450000000     0.843550000000     0.027500000000    -0.211      
N        N      0.669050000000     0.813350000000     0.037950000000    -0.205      
N        N      0.614250000000     0.722250000000     0.257650000000    -0.205      
N        N      0.634250000000     0.767350000000     0.273700000000    -0.209      
N        N      0.599700000000     0.839600000000     0.358550000000    -0.216      
N        N      0.570500000000     0.820600000000     0.375700000000    -0.212      
N        N      0.527500000000     0.694450000000     0.343550000000    -0.211      
N        N      0.537950000000     0.669050000000     0.313350000000    -0.205      
O        O      0.734850000000     0.909600000000     0.361000000000    -0.408      
O        O      0.668000000000     0.857350000000     0.324850000000    -0.472      
O        O      0.763150000000     0.892450000000     0.005850000000    -0.399      
O        O      0.751850000000     0.825000000000     0.462800000000    -0.363      
O        O      0.692050000000     0.931650000000     0.249150000000    -0.635      
O        O      0.861000000000     0.734850000000     0.409600000000    -0.408      
O        O      0.824850000000     0.668000000000     0.357350000000    -0.472      
O        O      0.505850000000     0.763150000000     0.392450000000    -0.399      
O        O      0.962800000000     0.751850000000     0.325000000000    -0.363      
O        O      0.749150000000     0.692050000000     0.431650000000    -0.635      
O        O      0.909600000000     0.861000000000     0.234850000000    -0.408      
O        O      0.857350000000     0.824850000000     0.168000000000    -0.472      
O        O      0.892450000000     0.505850000000     0.263150000000    -0.399      
O        O      0.825000000000     0.962800000000     0.251850000000    -0.363      
O        O      0.931650000000     0.749150000000     0.192050000000    -0.635      
O        O      0.765150000000     0.590400000000     0.139000000000    -0.408      
O        O      0.832000000000     0.642650000000     0.175150000000    -0.472      
O        O      0.736850000000     0.607550000000     0.494150000000    -0.399      
O        O      0.748150000000     0.675000000000     0.037200000000    -0.363      
O        O      0.807950000000     0.568350000000     0.250850000000    -0.635      
O        O      0.639000000000     0.765150000000     0.090400000000    -0.408      
O        O      0.675150000000     0.832000000000     0.142650000000    -0.472      
O        O      0.994150000000     0.736850000000     0.107550000000    -0.399      
O        O      0.537200000000     0.748150000000     0.175000000000    -0.363      
O        O      0.750850000000     0.807950000000     0.068350000000    -0.635      
O        O      0.590400000000     0.639000000000     0.265150000000    -0.408      
O        O      0.642650000000     0.675150000000     0.332000000000    -0.472      
O        O      0.607550000000     0.994150000000     0.236850000000    -0.399      
O        O      0.675000000000     0.537200000000     0.248150000000    -0.363      
O        O      0.568350000000     0.750850000000     0.307950000000    -0.635      
Cu       Cu     0.717350000000     0.924960000000     0.806950000000     0.877      
Cu       Cu     0.685660000000     0.883525000000     0.695035000000     0.87       
Cu       Cu     0.643880000000     0.955970000000     0.742955000000     0.88       
Cu       Cu     0.806950000000     0.717350000000     0.924960000000     0.877      
Cu       Cu     0.695035000000     0.685660000000     0.883525000000     0.87       
Cu       Cu     0.742955000000     0.643880000000     0.955970000000     0.88       
Cu       Cu     0.924960000000     0.806950000000     0.717350000000     0.878      
Cu       Cu     0.883525000000     0.695035000000     0.685660000000     0.871      
Cu       Cu     0.955970000000     0.742955000000     0.643880000000     0.881      
Cu       Cu     0.782650000000     0.575040000000     0.693050000000     0.878      
Cu       Cu     0.814340000000     0.616475000000     0.804965000000     0.871      
Cu       Cu     0.856120000000     0.544030000000     0.757045000000     0.881      
Cu       Cu     0.693050000000     0.782650000000     0.575040000000     0.878      
Cu       Cu     0.804965000000     0.814340000000     0.616475000000     0.871      
Cu       Cu     0.757045000000     0.856120000000     0.544030000000     0.881      
Cu       Cu     0.575040000000     0.693050000000     0.782650000000     0.878      
Cu       Cu     0.616475000000     0.804965000000     0.814340000000     0.871      
Cu       Cu     0.544030000000     0.757045000000     0.856120000000     0.881      
H        H      0.788800000000     0.877950000000     0.825200000000    -0.001      
H        H      0.796250000000     0.823100000000     0.762800000000     0.071      
H        H      0.741800000000     0.819400000000     0.692400000000    -0.004      
H        H      0.629200000000     0.868900000000     0.594700000000    -0          
H        H      0.576650000000     0.907200000000     0.577600000000     0.069      
H        H      0.581200000000     0.955450000000     0.652300000000     0.002      
H        H      0.617200000000     0.506250000000     0.822000000000     0.002      
H        H      0.652800000000     0.512000000000     0.899300000000     0.07       
H        H      0.708150000000     0.975700000000     0.898250000000     0.003      
H        H      0.707100000000     0.825650000000     0.880900000000     0.068      
H        H      0.689400000000     0.859250000000     0.907600000000     0.072      
H        H      0.778300000000     0.872750000000     0.918750000000     0.098      
H        H      0.763300000000     0.911650000000     0.941200000000     0.108      
H        H      0.717600000000     0.956900000000     0.751450000000     0.097      
H        H      0.825200000000     0.788800000000     0.877950000000    -0.001      
H        H      0.762800000000     0.796250000000     0.823100000000     0.071      
H        H      0.692400000000     0.741800000000     0.819400000000    -0.004      
H        H      0.594700000000     0.629200000000     0.868900000000    -0          
H        H      0.577600000000     0.576650000000     0.907200000000     0.069      
H        H      0.652300000000     0.581200000000     0.955450000000     0.002      
H        H      0.822000000000     0.617200000000     0.506250000000     0.002      
H        H      0.899300000000     0.652800000000     0.512000000000     0.07       
H        H      0.898250000000     0.708150000000     0.975700000000     0.003      
H        H      0.880900000000     0.707100000000     0.825650000000     0.068      
H        H      0.907600000000     0.689400000000     0.859250000000     0.072      
H        H      0.918750000000     0.778300000000     0.872750000000     0.098      
H        H      0.941200000000     0.763300000000     0.911650000000     0.108      
H        H      0.751450000000     0.717600000000     0.956900000000     0.097      
H        H      0.877950000000     0.825200000000     0.788800000000    -0.001      
H        H      0.823100000000     0.762800000000     0.796250000000     0.071      
H        H      0.819400000000     0.692400000000     0.741800000000    -0.004      
H        H      0.868900000000     0.594700000000     0.629200000000    -0          
H        H      0.907200000000     0.577600000000     0.576650000000     0.069      
H        H      0.955450000000     0.652300000000     0.581200000000     0.002      
H        H      0.506250000000     0.822000000000     0.617200000000     0.002      
H        H      0.512000000000     0.899300000000     0.652800000000     0.07       
H        H      0.975700000000     0.898250000000     0.708150000000     0.003      
H        H      0.825650000000     0.880900000000     0.707100000000     0.068      
H        H      0.859250000000     0.907600000000     0.689400000000     0.072      
H        H      0.872750000000     0.918750000000     0.778300000000     0.098      
H        H      0.911650000000     0.941200000000     0.763300000000     0.108      
H        H      0.956900000000     0.751450000000     0.717600000000     0.097      
H        H      0.711200000000     0.622050000000     0.674800000000    -0.001      
H        H      0.703750000000     0.676900000000     0.737200000000     0.071      
H        H      0.758200000000     0.680600000000     0.807600000000    -0.004      
H        H      0.870800000000     0.631100000000     0.905300000000    -0          
H        H      0.923350000000     0.592800000000     0.922400000000     0.069      
H        H      0.918800000000     0.544550000000     0.847700000000     0.002      
H        H      0.882800000000     0.993750000000     0.678000000000     0.002      
H        H      0.847200000000     0.988000000000     0.600700000000     0.07       
H        H      0.791850000000     0.524300000000     0.601750000000     0.003      
H        H      0.792900000000     0.674350000000     0.619100000000     0.068      
H        H      0.810600000000     0.640750000000     0.592400000000     0.072      
H        H      0.721700000000     0.627250000000     0.581250000000     0.098      
H        H      0.736700000000     0.588350000000     0.558800000000     0.108      
H        H      0.782400000000     0.543100000000     0.748550000000     0.097      
H        H      0.674800000000     0.711200000000     0.622050000000    -0.001      
H        H      0.737200000000     0.703750000000     0.676900000000     0.071      
H        H      0.807600000000     0.758200000000     0.680600000000    -0.004      
H        H      0.905300000000     0.870800000000     0.631100000000    -0          
H        H      0.922400000000     0.923350000000     0.592800000000     0.069      
H        H      0.847700000000     0.918800000000     0.544550000000     0.002      
H        H      0.678000000000     0.882800000000     0.993750000000     0.002      
H        H      0.600700000000     0.847200000000     0.988000000000     0.07       
H        H      0.601750000000     0.791850000000     0.524300000000     0.003      
H        H      0.619100000000     0.792900000000     0.674350000000     0.068      
H        H      0.592400000000     0.810600000000     0.640750000000     0.072      
H        H      0.581250000000     0.721700000000     0.627250000000     0.098      
H        H      0.558800000000     0.736700000000     0.588350000000     0.108      
H        H      0.748550000000     0.782400000000     0.543100000000     0.097      
H        H      0.622050000000     0.674800000000     0.711200000000    -0.001      
H        H      0.676900000000     0.737200000000     0.703750000000     0.071      
H        H      0.680600000000     0.807600000000     0.758200000000    -0.004      
H        H      0.631100000000     0.905300000000     0.870800000000    -0          
H        H      0.592800000000     0.922400000000     0.923350000000     0.069      
H        H      0.544550000000     0.847700000000     0.918800000000     0.002      
H        H      0.993750000000     0.678000000000     0.882800000000     0.002      
H        H      0.988000000000     0.600700000000     0.847200000000     0.07       
H        H      0.524300000000     0.601750000000     0.791850000000     0.003      
H        H      0.674350000000     0.619100000000     0.792900000000     0.068      
H        H      0.640750000000     0.592400000000     0.810600000000     0.072      
H        H      0.627250000000     0.581250000000     0.721700000000     0.098      
H        H      0.588350000000     0.558800000000     0.736700000000     0.108      
H        H      0.543100000000     0.748550000000     0.782400000000     0.097      
C        C      0.772650000000     0.869650000000     0.794450000000     0.068      
C        C      0.777050000000     0.839200000000     0.760350000000    -0.13       
C        C      0.746950000000     0.837550000000     0.721750000000     0.061      
C        C      0.623050000000     0.888800000000     0.616050000000     0.06       
C        C      0.594300000000     0.909800000000     0.606100000000    -0.134      
C        C      0.596850000000     0.936000000000     0.647700000000     0.066      
C        C      0.639350000000     0.994800000000     0.831700000000     0.061      
C        C      0.658850000000     0.998250000000     0.874150000000    -0.137      
C        C      0.688900000000     0.978050000000     0.873300000000     0.057      
C        C      0.704650000000     0.875700000000     0.857750000000     0.359      
C        C      0.712200000000     0.857550000000     0.894450000000    -0.211      
C        C      0.755650000000     0.879100000000     0.930400000000    -0.216      
C        C      0.757250000000     0.864050000000     0.968300000000     0.347      
C        C      0.794450000000     0.772650000000     0.869650000000     0.068      
C        C      0.760350000000     0.777050000000     0.839200000000    -0.13       
C        C      0.721750000000     0.746950000000     0.837550000000     0.061      
C        C      0.616050000000     0.623050000000     0.888800000000     0.06       
C        C      0.606100000000     0.594300000000     0.909800000000    -0.134      
C        C      0.647700000000     0.596850000000     0.936000000000     0.066      
C        C      0.831700000000     0.639350000000     0.994800000000     0.061      
C        C      0.874150000000     0.658850000000     0.998250000000    -0.137      
C        C      0.873300000000     0.688900000000     0.978050000000     0.057      
C        C      0.857750000000     0.704650000000     0.875700000000     0.359      
C        C      0.894450000000     0.712200000000     0.857550000000    -0.211      
C        C      0.930400000000     0.755650000000     0.879100000000    -0.216      
C        C      0.968300000000     0.757250000000     0.864050000000     0.347      
C        C      0.869650000000     0.794450000000     0.772650000000     0.068      
C        C      0.839200000000     0.760350000000     0.777050000000    -0.13       
C        C      0.837550000000     0.721750000000     0.746950000000     0.061      
C        C      0.888800000000     0.616050000000     0.623050000000     0.06       
C        C      0.909800000000     0.606100000000     0.594300000000    -0.134      
C        C      0.936000000000     0.647700000000     0.596850000000     0.066      
C        C      0.994800000000     0.831700000000     0.639350000000     0.061      
C        C      0.998250000000     0.874150000000     0.658850000000    -0.137      
C        C      0.978050000000     0.873300000000     0.688900000000     0.057      
C        C      0.875700000000     0.857750000000     0.704650000000     0.359      
C        C      0.857550000000     0.894450000000     0.712200000000    -0.211      
C        C      0.879100000000     0.930400000000     0.755650000000    -0.216      
C        C      0.864050000000     0.968300000000     0.757250000000     0.347      
C        C      0.727350000000     0.630350000000     0.705550000000     0.068      
C        C      0.722950000000     0.660800000000     0.739650000000    -0.13       
C        C      0.753050000000     0.662450000000     0.778250000000     0.061      
C        C      0.876950000000     0.611200000000     0.883950000000     0.06       
C        C      0.905700000000     0.590200000000     0.893900000000    -0.134      
C        C      0.903150000000     0.564000000000     0.852300000000     0.066      
C        C      0.860650000000     0.505200000000     0.668300000000     0.061      
C        C      0.841150000000     0.501750000000     0.625850000000    -0.137      
C        C      0.811100000000     0.521950000000     0.626700000000     0.057      
C        C      0.795350000000     0.624300000000     0.642250000000     0.359      
C        C      0.787800000000     0.642450000000     0.605550000000    -0.211      
C        C      0.744350000000     0.620900000000     0.569600000000    -0.216      
C        C      0.742750000000     0.635950000000     0.531700000000     0.347      
C        C      0.705550000000     0.727350000000     0.630350000000     0.068      
C        C      0.739650000000     0.722950000000     0.660800000000    -0.13       
C        C      0.778250000000     0.753050000000     0.662450000000     0.061      
C        C      0.883950000000     0.876950000000     0.611200000000     0.06       
C        C      0.893900000000     0.905700000000     0.590200000000    -0.134      
C        C      0.852300000000     0.903150000000     0.564000000000     0.066      
C        C      0.668300000000     0.860650000000     0.505200000000     0.061      
C        C      0.625850000000     0.841150000000     0.501750000000    -0.137      
C        C      0.626700000000     0.811100000000     0.521950000000     0.057      
C        C      0.642250000000     0.795350000000     0.624300000000     0.359      
C        C      0.605550000000     0.787800000000     0.642450000000    -0.211      
C        C      0.569600000000     0.744350000000     0.620900000000    -0.216      
C        C      0.531700000000     0.742750000000     0.635950000000     0.347      
C        C      0.630350000000     0.705550000000     0.727350000000     0.068      
C        C      0.660800000000     0.739650000000     0.722950000000    -0.13       
C        C      0.662450000000     0.778250000000     0.753050000000     0.061      
C        C      0.611200000000     0.883950000000     0.876950000000     0.06       
C        C      0.590200000000     0.893900000000     0.905700000000    -0.134      
C        C      0.564000000000     0.852300000000     0.903150000000     0.066      
C        C      0.505200000000     0.668300000000     0.860650000000     0.061      
C        C      0.501750000000     0.625850000000     0.841150000000    -0.137      
C        C      0.521950000000     0.626700000000     0.811100000000     0.057      
C        C      0.624300000000     0.642250000000     0.795350000000     0.359      
C        C      0.642450000000     0.605550000000     0.787800000000    -0.211      
C        C      0.620900000000     0.569600000000     0.744350000000    -0.216      
C        C      0.635950000000     0.531700000000     0.742750000000     0.347      
N        N      0.742350000000     0.885750000000     0.777750000000    -0.205      
N        N      0.726300000000     0.865750000000     0.732650000000    -0.209      
N        N      0.641450000000     0.900300000000     0.660400000000    -0.216      
N        N      0.624300000000     0.929500000000     0.679400000000    -0.212      
N        N      0.656450000000     0.972500000000     0.805550000000    -0.211      
N        N      0.686650000000     0.962050000000     0.830950000000    -0.205      
N        N      0.777750000000     0.742350000000     0.885750000000    -0.205      
N        N      0.732650000000     0.726300000000     0.865750000000    -0.209      
N        N      0.660400000000     0.641450000000     0.900300000000    -0.216      
N        N      0.679400000000     0.624300000000     0.929500000000    -0.212      
N        N      0.805550000000     0.656450000000     0.972500000000    -0.211      
N        N      0.830950000000     0.686650000000     0.962050000000    -0.205      
N        N      0.885750000000     0.777750000000     0.742350000000    -0.205      
N        N      0.865750000000     0.732650000000     0.726300000000    -0.209      
N        N      0.900300000000     0.660400000000     0.641450000000    -0.216      
N        N      0.929500000000     0.679400000000     0.624300000000    -0.212      
N        N      0.972500000000     0.805550000000     0.656450000000    -0.211      
N        N      0.962050000000     0.830950000000     0.686650000000    -0.205      
N        N      0.757650000000     0.614250000000     0.722250000000    -0.205      
N        N      0.773700000000     0.634250000000     0.767350000000    -0.209      
N        N      0.858550000000     0.599700000000     0.839600000000    -0.216      
N        N      0.875700000000     0.570500000000     0.820600000000    -0.212      
N        N      0.843550000000     0.527500000000     0.694450000000    -0.211      
N        N      0.813350000000     0.537950000000     0.669050000000    -0.205      
N        N      0.722250000000     0.757650000000     0.614250000000    -0.205      
N        N      0.767350000000     0.773700000000     0.634250000000    -0.209      
N        N      0.839600000000     0.858550000000     0.599700000000    -0.216      
N        N      0.820600000000     0.875700000000     0.570500000000    -0.212      
N        N      0.694450000000     0.843550000000     0.527500000000    -0.211      
N        N      0.669050000000     0.813350000000     0.537950000000    -0.205      
N        N      0.614250000000     0.722250000000     0.757650000000    -0.205      
N        N      0.634250000000     0.767350000000     0.773700000000    -0.209      
N        N      0.599700000000     0.839600000000     0.858550000000    -0.216      
N        N      0.570500000000     0.820600000000     0.875700000000    -0.212      
N        N      0.527500000000     0.694450000000     0.843550000000    -0.211      
N        N      0.537950000000     0.669050000000     0.813350000000    -0.205      
O        O      0.734850000000     0.909600000000     0.861000000000    -0.408      
O        O      0.668000000000     0.857350000000     0.824850000000    -0.472      
O        O      0.763150000000     0.892450000000     0.505850000000    -0.399      
O        O      0.751850000000     0.825000000000     0.962800000000    -0.363      
O        O      0.692050000000     0.931650000000     0.749150000000    -0.635      
O        O      0.861000000000     0.734850000000     0.909600000000    -0.408      
O        O      0.824850000000     0.668000000000     0.857350000000    -0.472      
O        O      0.505850000000     0.763150000000     0.892450000000    -0.399      
O        O      0.962800000000     0.751850000000     0.825000000000    -0.363      
O        O      0.749150000000     0.692050000000     0.931650000000    -0.635      
O        O      0.909600000000     0.861000000000     0.734850000000    -0.408      
O        O      0.857350000000     0.824850000000     0.668000000000    -0.472      
O        O      0.892450000000     0.505850000000     0.763150000000    -0.399      
O        O      0.825000000000     0.962800000000     0.751850000000    -0.363      
O        O      0.931650000000     0.749150000000     0.692050000000    -0.635      
O        O      0.765150000000     0.590400000000     0.639000000000    -0.408      
O        O      0.832000000000     0.642650000000     0.675150000000    -0.472      
O        O      0.736850000000     0.607550000000     0.994150000000    -0.399      
O        O      0.748150000000     0.675000000000     0.537200000000    -0.363      
O        O      0.807950000000     0.568350000000     0.750850000000    -0.635      
O        O      0.639000000000     0.765150000000     0.590400000000    -0.408      
O        O      0.675150000000     0.832000000000     0.642650000000    -0.472      
O        O      0.994150000000     0.736850000000     0.607550000000    -0.399      
O        O      0.537200000000     0.748150000000     0.675000000000    -0.363      
O        O      0.750850000000     0.807950000000     0.568350000000    -0.635      
O        O      0.590400000000     0.639000000000     0.765150000000    -0.408      
O        O      0.642650000000     0.675150000000     0.832000000000    -0.472      
O        O      0.607550000000     0.994150000000     0.736850000000    -0.399      
O        O      0.675000000000     0.537200000000     0.748150000000    -0.363      
O        O      0.568350000000     0.750850000000     0.807950000000    -0.635      


