data_SOPPOD_clean_DDEC

_audit_creation_method RASPA-1.0
_audit_creation_date 2025-9-8
_audit_author_name ''

_cell_length_a    35.6604
_cell_length_b    37.2592
_cell_length_c    37.2592
_cell_angle_alpha 76.7616
_cell_angle_beta  61.4097
_cell_angle_gamma 61.4098
_cell_volume      38168.6

_symmetry_cell_setting          triclinic
_symmetry_space_group_name_Hall 'P 1'
_symmetry_space_group_name_H-M  'P 1'
_symmetry_Int_Tables_number     1

_symmetry_equiv_pos_as_xyz 'x,y,z'

loop_
_atom_site_label
_atom_site_type_symbol
_atom_site_fract_x
_atom_site_fract_y
_atom_site_fract_z
_atom_site_charge
C1       C      0.139225000000     0.132000000000     0.129650000000     0.515183   
C2       C      0.110775000000     0.118000000000     0.120350000000     0.515181   
C3       C      0.224125000000     0.007000000000     0.004650000000     0.515165   
C4       C      0.231125000000     0.129650000000     0.243000000000     0.51518    
C5       C      0.228775000000     0.245350000000     0.132000000000     0.515175   
C6       C      0.025875000000     0.243000000000     0.245350000000     0.515167   
C7       C      0.018875000000     0.120350000000     0.007000000000     0.51518    
C8       C      0.021225000000     0.004650000000     0.118000000000     0.515174   
K1       K      0.093750000000     0.062500000000     0.062500000000     0.912191   
K2       K      0.156250000000     0.187500000000     0.187500000000     0.912193   
O1       O      0.043900000000     0.139675000000     0.239225000000    -0.616798   
O2       O      0.056325000000     0.214825000000     0.219675000000    -0.62851    
O3       O      0.047800000000     0.235325000000     0.135775000000    -0.616803   
O4       O      0.206100000000     0.110325000000     0.010775000000    -0.616798   
O5       O      0.115825000000     0.160175000000     0.155325000000    -0.628515   
O6       O      0.033125000000     0.010775000000     0.014675000000    -0.616795   
O7       O      0.021150000000     0.094675000000     0.035175000000    -0.628519   
O8       O      0.066425000000     0.135775000000     0.139675000000    -0.616811   
O9       O      0.183575000000     0.114225000000     0.110325000000    -0.616813   
O10      O      0.216875000000     0.239225000000     0.235325000000    -0.616794   
O11      O      0.228850000000     0.155325000000     0.214825000000    -0.628519   
O12      O      0.202200000000     0.014675000000     0.114225000000    -0.616804   
O13      O      0.193675000000     0.035175000000     0.030325000000    -0.628509   
O14      O      0.026000000000     0.030325000000     0.089825000000    -0.628511   
O15      O      0.134175000000     0.089825000000     0.094675000000    -0.628514   
O16      O      0.224000000000     0.219675000000     0.160175000000    -0.628511   
Tb1      Tb     0.031250000000     0.187500000000     0.187500000000     2.00837    
Tb2      Tb     0.218750000000     0.062500000000     0.062500000000     2.00837    
C1       C      0.139225000000     0.132000000000     0.379650000000     0.515183   
C2       C      0.110775000000     0.118000000000     0.370350000000     0.515181   
C3       C      0.224125000000     0.007000000000     0.254650000000     0.515165   
C4       C      0.231125000000     0.129650000000     0.493000000000     0.51518    
C5       C      0.228775000000     0.245350000000     0.382000000000     0.515175   
C6       C      0.025875000000     0.243000000000     0.495350000000     0.515167   
C7       C      0.018875000000     0.120350000000     0.257000000000     0.51518    
C8       C      0.021225000000     0.004650000000     0.368000000000     0.515174   
K1       K      0.093750000000     0.062500000000     0.312500000000     0.912191   
K2       K      0.156250000000     0.187500000000     0.437500000000     0.912193   
O1       O      0.043900000000     0.139675000000     0.489225000000    -0.616798   
O2       O      0.056325000000     0.214825000000     0.469675000000    -0.62851    
O3       O      0.047800000000     0.235325000000     0.385775000000    -0.616803   
O4       O      0.206100000000     0.110325000000     0.260775000000    -0.616798   
O5       O      0.115825000000     0.160175000000     0.405325000000    -0.628515   
O6       O      0.033125000000     0.010775000000     0.264675000000    -0.616795   
O7       O      0.021150000000     0.094675000000     0.285175000000    -0.628519   
O8       O      0.066425000000     0.135775000000     0.389675000000    -0.616811   
O9       O      0.183575000000     0.114225000000     0.360325000000    -0.616813   
O10      O      0.216875000000     0.239225000000     0.485325000000    -0.616794   
O11      O      0.228850000000     0.155325000000     0.464825000000    -0.628519   
O12      O      0.202200000000     0.014675000000     0.364225000000    -0.616804   
O13      O      0.193675000000     0.035175000000     0.280325000000    -0.628509   
O14      O      0.026000000000     0.030325000000     0.339825000000    -0.628511   
O15      O      0.134175000000     0.089825000000     0.344675000000    -0.628514   
O16      O      0.224000000000     0.219675000000     0.410175000000    -0.628511   
Tb1      Tb     0.031250000000     0.187500000000     0.437500000000     2.00837    
Tb2      Tb     0.218750000000     0.062500000000     0.312500000000     2.00837    
C1       C      0.139225000000     0.132000000000     0.629650000000     0.515183   
C2       C      0.110775000000     0.118000000000     0.620350000000     0.515181   
C3       C      0.224125000000     0.007000000000     0.504650000000     0.515165   
C4       C      0.231125000000     0.129650000000     0.743000000000     0.51518    
C5       C      0.228775000000     0.245350000000     0.632000000000     0.515175   
C6       C      0.025875000000     0.243000000000     0.745350000000     0.515167   
C7       C      0.018875000000     0.120350000000     0.507000000000     0.51518    
C8       C      0.021225000000     0.004650000000     0.618000000000     0.515174   
K1       K      0.093750000000     0.062500000000     0.562500000000     0.912191   
K2       K      0.156250000000     0.187500000000     0.687500000000     0.912193   
O1       O      0.043900000000     0.139675000000     0.739225000000    -0.616798   
O2       O      0.056325000000     0.214825000000     0.719675000000    -0.62851    
O3       O      0.047800000000     0.235325000000     0.635775000000    -0.616803   
O4       O      0.206100000000     0.110325000000     0.510775000000    -0.616798   
O5       O      0.115825000000     0.160175000000     0.655325000000    -0.628515   
O6       O      0.033125000000     0.010775000000     0.514675000000    -0.616795   
O7       O      0.021150000000     0.094675000000     0.535175000000    -0.628519   
O8       O      0.066425000000     0.135775000000     0.639675000000    -0.616811   
O9       O      0.183575000000     0.114225000000     0.610325000000    -0.616813   
O10      O      0.216875000000     0.239225000000     0.735325000000    -0.616794   
O11      O      0.228850000000     0.155325000000     0.714825000000    -0.628519   
O12      O      0.202200000000     0.014675000000     0.614225000000    -0.616804   
O13      O      0.193675000000     0.035175000000     0.530325000000    -0.628509   
O14      O      0.026000000000     0.030325000000     0.589825000000    -0.628511   
O15      O      0.134175000000     0.089825000000     0.594675000000    -0.628514   
O16      O      0.224000000000     0.219675000000     0.660175000000    -0.628511   
Tb1      Tb     0.031250000000     0.187500000000     0.687500000000     2.00837    
Tb2      Tb     0.218750000000     0.062500000000     0.562500000000     2.00837    
C1       C      0.139225000000     0.132000000000     0.879650000000     0.515183   
C2       C      0.110775000000     0.118000000000     0.870350000000     0.515181   
C3       C      0.224125000000     0.007000000000     0.754650000000     0.515165   
C4       C      0.231125000000     0.129650000000     0.993000000000     0.51518    
C5       C      0.228775000000     0.245350000000     0.882000000000     0.515175   
C6       C      0.025875000000     0.243000000000     0.995350000000     0.515167   
C7       C      0.018875000000     0.120350000000     0.757000000000     0.51518    
C8       C      0.021225000000     0.004650000000     0.868000000000     0.515174   
K1       K      0.093750000000     0.062500000000     0.812500000000     0.912191   
K2       K      0.156250000000     0.187500000000     0.937500000000     0.912193   
O1       O      0.043900000000     0.139675000000     0.989225000000    -0.616798   
O2       O      0.056325000000     0.214825000000     0.969675000000    -0.62851    
O3       O      0.047800000000     0.235325000000     0.885775000000    -0.616803   
O4       O      0.206100000000     0.110325000000     0.760775000000    -0.616798   
O5       O      0.115825000000     0.160175000000     0.905325000000    -0.628515   
O6       O      0.033125000000     0.010775000000     0.764675000000    -0.616795   
O7       O      0.021150000000     0.094675000000     0.785175000000    -0.628519   
O8       O      0.066425000000     0.135775000000     0.889675000000    -0.616811   
O9       O      0.183575000000     0.114225000000     0.860325000000    -0.616813   
O10      O      0.216875000000     0.239225000000     0.985325000000    -0.616794   
O11      O      0.228850000000     0.155325000000     0.964825000000    -0.628519   
O12      O      0.202200000000     0.014675000000     0.864225000000    -0.616804   
O13      O      0.193675000000     0.035175000000     0.780325000000    -0.628509   
O14      O      0.026000000000     0.030325000000     0.839825000000    -0.628511   
O15      O      0.134175000000     0.089825000000     0.844675000000    -0.628514   
O16      O      0.224000000000     0.219675000000     0.910175000000    -0.628511   
Tb1      Tb     0.031250000000     0.187500000000     0.937500000000     2.00837    
Tb2      Tb     0.218750000000     0.062500000000     0.812500000000     2.00837    
C1       C      0.139225000000     0.382000000000     0.129650000000     0.515183   
C2       C      0.110775000000     0.368000000000     0.120350000000     0.515181   
C3       C      0.224125000000     0.257000000000     0.004650000000     0.515165   
C4       C      0.231125000000     0.379650000000     0.243000000000     0.51518    
C5       C      0.228775000000     0.495350000000     0.132000000000     0.515175   
C6       C      0.025875000000     0.493000000000     0.245350000000     0.515167   
C7       C      0.018875000000     0.370350000000     0.007000000000     0.51518    
C8       C      0.021225000000     0.254650000000     0.118000000000     0.515174   
K1       K      0.093750000000     0.312500000000     0.062500000000     0.912191   
K2       K      0.156250000000     0.437500000000     0.187500000000     0.912193   
O1       O      0.043900000000     0.389675000000     0.239225000000    -0.616798   
O2       O      0.056325000000     0.464825000000     0.219675000000    -0.62851    
O3       O      0.047800000000     0.485325000000     0.135775000000    -0.616803   
O4       O      0.206100000000     0.360325000000     0.010775000000    -0.616798   
O5       O      0.115825000000     0.410175000000     0.155325000000    -0.628515   
O6       O      0.033125000000     0.260775000000     0.014675000000    -0.616795   
O7       O      0.021150000000     0.344675000000     0.035175000000    -0.628519   
O8       O      0.066425000000     0.385775000000     0.139675000000    -0.616811   
O9       O      0.183575000000     0.364225000000     0.110325000000    -0.616813   
O10      O      0.216875000000     0.489225000000     0.235325000000    -0.616794   
O11      O      0.228850000000     0.405325000000     0.214825000000    -0.628519   
O12      O      0.202200000000     0.264675000000     0.114225000000    -0.616804   
O13      O      0.193675000000     0.285175000000     0.030325000000    -0.628509   
O14      O      0.026000000000     0.280325000000     0.089825000000    -0.628511   
O15      O      0.134175000000     0.339825000000     0.094675000000    -0.628514   
O16      O      0.224000000000     0.469675000000     0.160175000000    -0.628511   
Tb1      Tb     0.031250000000     0.437500000000     0.187500000000     2.00837    
Tb2      Tb     0.218750000000     0.312500000000     0.062500000000     2.00837    
C1       C      0.139225000000     0.382000000000     0.379650000000     0.515183   
C2       C      0.110775000000     0.368000000000     0.370350000000     0.515181   
C3       C      0.224125000000     0.257000000000     0.254650000000     0.515165   
C4       C      0.231125000000     0.379650000000     0.493000000000     0.51518    
C5       C      0.228775000000     0.495350000000     0.382000000000     0.515175   
C6       C      0.025875000000     0.493000000000     0.495350000000     0.515167   
C7       C      0.018875000000     0.370350000000     0.257000000000     0.51518    
C8       C      0.021225000000     0.254650000000     0.368000000000     0.515174   
K1       K      0.093750000000     0.312500000000     0.312500000000     0.912191   
K2       K      0.156250000000     0.437500000000     0.437500000000     0.912193   
O1       O      0.043900000000     0.389675000000     0.489225000000    -0.616798   
O2       O      0.056325000000     0.464825000000     0.469675000000    -0.62851    
O3       O      0.047800000000     0.485325000000     0.385775000000    -0.616803   
O4       O      0.206100000000     0.360325000000     0.260775000000    -0.616798   
O5       O      0.115825000000     0.410175000000     0.405325000000    -0.628515   
O6       O      0.033125000000     0.260775000000     0.264675000000    -0.616795   
O7       O      0.021150000000     0.344675000000     0.285175000000    -0.628519   
O8       O      0.066425000000     0.385775000000     0.389675000000    -0.616811   
O9       O      0.183575000000     0.364225000000     0.360325000000    -0.616813   
O10      O      0.216875000000     0.489225000000     0.485325000000    -0.616794   
O11      O      0.228850000000     0.405325000000     0.464825000000    -0.628519   
O12      O      0.202200000000     0.264675000000     0.364225000000    -0.616804   
O13      O      0.193675000000     0.285175000000     0.280325000000    -0.628509   
O14      O      0.026000000000     0.280325000000     0.339825000000    -0.628511   
O15      O      0.134175000000     0.339825000000     0.344675000000    -0.628514   
O16      O      0.224000000000     0.469675000000     0.410175000000    -0.628511   
Tb1      Tb     0.031250000000     0.437500000000     0.437500000000     2.00837    
Tb2      Tb     0.218750000000     0.312500000000     0.312500000000     2.00837    
C1       C      0.139225000000     0.382000000000     0.629650000000     0.515183   
C2       C      0.110775000000     0.368000000000     0.620350000000     0.515181   
C3       C      0.224125000000     0.257000000000     0.504650000000     0.515165   
C4       C      0.231125000000     0.379650000000     0.743000000000     0.51518    
C5       C      0.228775000000     0.495350000000     0.632000000000     0.515175   
C6       C      0.025875000000     0.493000000000     0.745350000000     0.515167   
C7       C      0.018875000000     0.370350000000     0.507000000000     0.51518    
C8       C      0.021225000000     0.254650000000     0.618000000000     0.515174   
K1       K      0.093750000000     0.312500000000     0.562500000000     0.912191   
K2       K      0.156250000000     0.437500000000     0.687500000000     0.912193   
O1       O      0.043900000000     0.389675000000     0.739225000000    -0.616798   
O2       O      0.056325000000     0.464825000000     0.719675000000    -0.62851    
O3       O      0.047800000000     0.485325000000     0.635775000000    -0.616803   
O4       O      0.206100000000     0.360325000000     0.510775000000    -0.616798   
O5       O      0.115825000000     0.410175000000     0.655325000000    -0.628515   
O6       O      0.033125000000     0.260775000000     0.514675000000    -0.616795   
O7       O      0.021150000000     0.344675000000     0.535175000000    -0.628519   
O8       O      0.066425000000     0.385775000000     0.639675000000    -0.616811   
O9       O      0.183575000000     0.364225000000     0.610325000000    -0.616813   
O10      O      0.216875000000     0.489225000000     0.735325000000    -0.616794   
O11      O      0.228850000000     0.405325000000     0.714825000000    -0.628519   
O12      O      0.202200000000     0.264675000000     0.614225000000    -0.616804   
O13      O      0.193675000000     0.285175000000     0.530325000000    -0.628509   
O14      O      0.026000000000     0.280325000000     0.589825000000    -0.628511   
O15      O      0.134175000000     0.339825000000     0.594675000000    -0.628514   
O16      O      0.224000000000     0.469675000000     0.660175000000    -0.628511   
Tb1      Tb     0.031250000000     0.437500000000     0.687500000000     2.00837    
Tb2      Tb     0.218750000000     0.312500000000     0.562500000000     2.00837    
C1       C      0.139225000000     0.382000000000     0.879650000000     0.515183   
C2       C      0.110775000000     0.368000000000     0.870350000000     0.515181   
C3       C      0.224125000000     0.257000000000     0.754650000000     0.515165   
C4       C      0.231125000000     0.379650000000     0.993000000000     0.51518    
C5       C      0.228775000000     0.495350000000     0.882000000000     0.515175   
C6       C      0.025875000000     0.493000000000     0.995350000000     0.515167   
C7       C      0.018875000000     0.370350000000     0.757000000000     0.51518    
C8       C      0.021225000000     0.254650000000     0.868000000000     0.515174   
K1       K      0.093750000000     0.312500000000     0.812500000000     0.912191   
K2       K      0.156250000000     0.437500000000     0.937500000000     0.912193   
O1       O      0.043900000000     0.389675000000     0.989225000000    -0.616798   
O2       O      0.056325000000     0.464825000000     0.969675000000    -0.62851    
O3       O      0.047800000000     0.485325000000     0.885775000000    -0.616803   
O4       O      0.206100000000     0.360325000000     0.760775000000    -0.616798   
O5       O      0.115825000000     0.410175000000     0.905325000000    -0.628515   
O6       O      0.033125000000     0.260775000000     0.764675000000    -0.616795   
O7       O      0.021150000000     0.344675000000     0.785175000000    -0.628519   
O8       O      0.066425000000     0.385775000000     0.889675000000    -0.616811   
O9       O      0.183575000000     0.364225000000     0.860325000000    -0.616813   
O10      O      0.216875000000     0.489225000000     0.985325000000    -0.616794   
O11      O      0.228850000000     0.405325000000     0.964825000000    -0.628519   
O12      O      0.202200000000     0.264675000000     0.864225000000    -0.616804   
O13      O      0.193675000000     0.285175000000     0.780325000000    -0.628509   
O14      O      0.026000000000     0.280325000000     0.839825000000    -0.628511   
O15      O      0.134175000000     0.339825000000     0.844675000000    -0.628514   
O16      O      0.224000000000     0.469675000000     0.910175000000    -0.628511   
Tb1      Tb     0.031250000000     0.437500000000     0.937500000000     2.00837    
Tb2      Tb     0.218750000000     0.312500000000     0.812500000000     2.00837    
C1       C      0.139225000000     0.632000000000     0.129650000000     0.515183   
C2       C      0.110775000000     0.618000000000     0.120350000000     0.515181   
C3       C      0.224125000000     0.507000000000     0.004650000000     0.515165   
C4       C      0.231125000000     0.629650000000     0.243000000000     0.51518    
C5       C      0.228775000000     0.745350000000     0.132000000000     0.515175   
C6       C      0.025875000000     0.743000000000     0.245350000000     0.515167   
C7       C      0.018875000000     0.620350000000     0.007000000000     0.51518    
C8       C      0.021225000000     0.504650000000     0.118000000000     0.515174   
K1       K      0.093750000000     0.562500000000     0.062500000000     0.912191   
K2       K      0.156250000000     0.687500000000     0.187500000000     0.912193   
O1       O      0.043900000000     0.639675000000     0.239225000000    -0.616798   
O2       O      0.056325000000     0.714825000000     0.219675000000    -0.62851    
O3       O      0.047800000000     0.735325000000     0.135775000000    -0.616803   
O4       O      0.206100000000     0.610325000000     0.010775000000    -0.616798   
O5       O      0.115825000000     0.660175000000     0.155325000000    -0.628515   
O6       O      0.033125000000     0.510775000000     0.014675000000    -0.616795   
O7       O      0.021150000000     0.594675000000     0.035175000000    -0.628519   
O8       O      0.066425000000     0.635775000000     0.139675000000    -0.616811   
O9       O      0.183575000000     0.614225000000     0.110325000000    -0.616813   
O10      O      0.216875000000     0.739225000000     0.235325000000    -0.616794   
O11      O      0.228850000000     0.655325000000     0.214825000000    -0.628519   
O12      O      0.202200000000     0.514675000000     0.114225000000    -0.616804   
O13      O      0.193675000000     0.535175000000     0.030325000000    -0.628509   
O14      O      0.026000000000     0.530325000000     0.089825000000    -0.628511   
O15      O      0.134175000000     0.589825000000     0.094675000000    -0.628514   
O16      O      0.224000000000     0.719675000000     0.160175000000    -0.628511   
Tb1      Tb     0.031250000000     0.687500000000     0.187500000000     2.00837    
Tb2      Tb     0.218750000000     0.562500000000     0.062500000000     2.00837    
C1       C      0.139225000000     0.632000000000     0.379650000000     0.515183   
C2       C      0.110775000000     0.618000000000     0.370350000000     0.515181   
C3       C      0.224125000000     0.507000000000     0.254650000000     0.515165   
C4       C      0.231125000000     0.629650000000     0.493000000000     0.51518    
C5       C      0.228775000000     0.745350000000     0.382000000000     0.515175   
C6       C      0.025875000000     0.743000000000     0.495350000000     0.515167   
C7       C      0.018875000000     0.620350000000     0.257000000000     0.51518    
C8       C      0.021225000000     0.504650000000     0.368000000000     0.515174   
K1       K      0.093750000000     0.562500000000     0.312500000000     0.912191   
K2       K      0.156250000000     0.687500000000     0.437500000000     0.912193   
O1       O      0.043900000000     0.639675000000     0.489225000000    -0.616798   
O2       O      0.056325000000     0.714825000000     0.469675000000    -0.62851    
O3       O      0.047800000000     0.735325000000     0.385775000000    -0.616803   
O4       O      0.206100000000     0.610325000000     0.260775000000    -0.616798   
O5       O      0.115825000000     0.660175000000     0.405325000000    -0.628515   
O6       O      0.033125000000     0.510775000000     0.264675000000    -0.616795   
O7       O      0.021150000000     0.594675000000     0.285175000000    -0.628519   
O8       O      0.066425000000     0.635775000000     0.389675000000    -0.616811   
O9       O      0.183575000000     0.614225000000     0.360325000000    -0.616813   
O10      O      0.216875000000     0.739225000000     0.485325000000    -0.616794   
O11      O      0.228850000000     0.655325000000     0.464825000000    -0.628519   
O12      O      0.202200000000     0.514675000000     0.364225000000    -0.616804   
O13      O      0.193675000000     0.535175000000     0.280325000000    -0.628509   
O14      O      0.026000000000     0.530325000000     0.339825000000    -0.628511   
O15      O      0.134175000000     0.589825000000     0.344675000000    -0.628514   
O16      O      0.224000000000     0.719675000000     0.410175000000    -0.628511   
Tb1      Tb     0.031250000000     0.687500000000     0.437500000000     2.00837    
Tb2      Tb     0.218750000000     0.562500000000     0.312500000000     2.00837    
C1       C      0.139225000000     0.632000000000     0.629650000000     0.515183   
C2       C      0.110775000000     0.618000000000     0.620350000000     0.515181   
C3       C      0.224125000000     0.507000000000     0.504650000000     0.515165   
C4       C      0.231125000000     0.629650000000     0.743000000000     0.51518    
C5       C      0.228775000000     0.745350000000     0.632000000000     0.515175   
C6       C      0.025875000000     0.743000000000     0.745350000000     0.515167   
C7       C      0.018875000000     0.620350000000     0.507000000000     0.51518    
C8       C      0.021225000000     0.504650000000     0.618000000000     0.515174   
K1       K      0.093750000000     0.562500000000     0.562500000000     0.912191   
K2       K      0.156250000000     0.687500000000     0.687500000000     0.912193   
O1       O      0.043900000000     0.639675000000     0.739225000000    -0.616798   
O2       O      0.056325000000     0.714825000000     0.719675000000    -0.62851    
O3       O      0.047800000000     0.735325000000     0.635775000000    -0.616803   
O4       O      0.206100000000     0.610325000000     0.510775000000    -0.616798   
O5       O      0.115825000000     0.660175000000     0.655325000000    -0.628515   
O6       O      0.033125000000     0.510775000000     0.514675000000    -0.616795   
O7       O      0.021150000000     0.594675000000     0.535175000000    -0.628519   
O8       O      0.066425000000     0.635775000000     0.639675000000    -0.616811   
O9       O      0.183575000000     0.614225000000     0.610325000000    -0.616813   
O10      O      0.216875000000     0.739225000000     0.735325000000    -0.616794   
O11      O      0.228850000000     0.655325000000     0.714825000000    -0.628519   
O12      O      0.202200000000     0.514675000000     0.614225000000    -0.616804   
O13      O      0.193675000000     0.535175000000     0.530325000000    -0.628509   
O14      O      0.026000000000     0.530325000000     0.589825000000    -0.628511   
O15      O      0.134175000000     0.589825000000     0.594675000000    -0.628514   
O16      O      0.224000000000     0.719675000000     0.660175000000    -0.628511   
Tb1      Tb     0.031250000000     0.687500000000     0.687500000000     2.00837    
Tb2      Tb     0.218750000000     0.562500000000     0.562500000000     2.00837    
C1       C      0.139225000000     0.632000000000     0.879650000000     0.515183   
C2       C      0.110775000000     0.618000000000     0.870350000000     0.515181   
C3       C      0.224125000000     0.507000000000     0.754650000000     0.515165   
C4       C      0.231125000000     0.629650000000     0.993000000000     0.51518    
C5       C      0.228775000000     0.745350000000     0.882000000000     0.515175   
C6       C      0.025875000000     0.743000000000     0.995350000000     0.515167   
C7       C      0.018875000000     0.620350000000     0.757000000000     0.51518    
C8       C      0.021225000000     0.504650000000     0.868000000000     0.515174   
K1       K      0.093750000000     0.562500000000     0.812500000000     0.912191   
K2       K      0.156250000000     0.687500000000     0.937500000000     0.912193   
O1       O      0.043900000000     0.639675000000     0.989225000000    -0.616798   
O2       O      0.056325000000     0.714825000000     0.969675000000    -0.62851    
O3       O      0.047800000000     0.735325000000     0.885775000000    -0.616803   
O4       O      0.206100000000     0.610325000000     0.760775000000    -0.616798   
O5       O      0.115825000000     0.660175000000     0.905325000000    -0.628515   
O6       O      0.033125000000     0.510775000000     0.764675000000    -0.616795   
O7       O      0.021150000000     0.594675000000     0.785175000000    -0.628519   
O8       O      0.066425000000     0.635775000000     0.889675000000    -0.616811   
O9       O      0.183575000000     0.614225000000     0.860325000000    -0.616813   
O10      O      0.216875000000     0.739225000000     0.985325000000    -0.616794   
O11      O      0.228850000000     0.655325000000     0.964825000000    -0.628519   
O12      O      0.202200000000     0.514675000000     0.864225000000    -0.616804   
O13      O      0.193675000000     0.535175000000     0.780325000000    -0.628509   
O14      O      0.026000000000     0.530325000000     0.839825000000    -0.628511   
O15      O      0.134175000000     0.589825000000     0.844675000000    -0.628514   
O16      O      0.224000000000     0.719675000000     0.910175000000    -0.628511   
Tb1      Tb     0.031250000000     0.687500000000     0.937500000000     2.00837    
Tb2      Tb     0.218750000000     0.562500000000     0.812500000000     2.00837    
C1       C      0.139225000000     0.882000000000     0.129650000000     0.515183   
C2       C      0.110775000000     0.868000000000     0.120350000000     0.515181   
C3       C      0.224125000000     0.757000000000     0.004650000000     0.515165   
C4       C      0.231125000000     0.879650000000     0.243000000000     0.51518    
C5       C      0.228775000000     0.995350000000     0.132000000000     0.515175   
C6       C      0.025875000000     0.993000000000     0.245350000000     0.515167   
C7       C      0.018875000000     0.870350000000     0.007000000000     0.51518    
C8       C      0.021225000000     0.754650000000     0.118000000000     0.515174   
K1       K      0.093750000000     0.812500000000     0.062500000000     0.912191   
K2       K      0.156250000000     0.937500000000     0.187500000000     0.912193   
O1       O      0.043900000000     0.889675000000     0.239225000000    -0.616798   
O2       O      0.056325000000     0.964825000000     0.219675000000    -0.62851    
O3       O      0.047800000000     0.985325000000     0.135775000000    -0.616803   
O4       O      0.206100000000     0.860325000000     0.010775000000    -0.616798   
O5       O      0.115825000000     0.910175000000     0.155325000000    -0.628515   
O6       O      0.033125000000     0.760775000000     0.014675000000    -0.616795   
O7       O      0.021150000000     0.844675000000     0.035175000000    -0.628519   
O8       O      0.066425000000     0.885775000000     0.139675000000    -0.616811   
O9       O      0.183575000000     0.864225000000     0.110325000000    -0.616813   
O10      O      0.216875000000     0.989225000000     0.235325000000    -0.616794   
O11      O      0.228850000000     0.905325000000     0.214825000000    -0.628519   
O12      O      0.202200000000     0.764675000000     0.114225000000    -0.616804   
O13      O      0.193675000000     0.785175000000     0.030325000000    -0.628509   
O14      O      0.026000000000     0.780325000000     0.089825000000    -0.628511   
O15      O      0.134175000000     0.839825000000     0.094675000000    -0.628514   
O16      O      0.224000000000     0.969675000000     0.160175000000    -0.628511   
Tb1      Tb     0.031250000000     0.937500000000     0.187500000000     2.00837    
Tb2      Tb     0.218750000000     0.812500000000     0.062500000000     2.00837    
C1       C      0.139225000000     0.882000000000     0.379650000000     0.515183   
C2       C      0.110775000000     0.868000000000     0.370350000000     0.515181   
C3       C      0.224125000000     0.757000000000     0.254650000000     0.515165   
C4       C      0.231125000000     0.879650000000     0.493000000000     0.51518    
C5       C      0.228775000000     0.995350000000     0.382000000000     0.515175   
C6       C      0.025875000000     0.993000000000     0.495350000000     0.515167   
C7       C      0.018875000000     0.870350000000     0.257000000000     0.51518    
C8       C      0.021225000000     0.754650000000     0.368000000000     0.515174   
K1       K      0.093750000000     0.812500000000     0.312500000000     0.912191   
K2       K      0.156250000000     0.937500000000     0.437500000000     0.912193   
O1       O      0.043900000000     0.889675000000     0.489225000000    -0.616798   
O2       O      0.056325000000     0.964825000000     0.469675000000    -0.62851    
O3       O      0.047800000000     0.985325000000     0.385775000000    -0.616803   
O4       O      0.206100000000     0.860325000000     0.260775000000    -0.616798   
O5       O      0.115825000000     0.910175000000     0.405325000000    -0.628515   
O6       O      0.033125000000     0.760775000000     0.264675000000    -0.616795   
O7       O      0.021150000000     0.844675000000     0.285175000000    -0.628519   
O8       O      0.066425000000     0.885775000000     0.389675000000    -0.616811   
O9       O      0.183575000000     0.864225000000     0.360325000000    -0.616813   
O10      O      0.216875000000     0.989225000000     0.485325000000    -0.616794   
O11      O      0.228850000000     0.905325000000     0.464825000000    -0.628519   
O12      O      0.202200000000     0.764675000000     0.364225000000    -0.616804   
O13      O      0.193675000000     0.785175000000     0.280325000000    -0.628509   
O14      O      0.026000000000     0.780325000000     0.339825000000    -0.628511   
O15      O      0.134175000000     0.839825000000     0.344675000000    -0.628514   
O16      O      0.224000000000     0.969675000000     0.410175000000    -0.628511   
Tb1      Tb     0.031250000000     0.937500000000     0.437500000000     2.00837    
Tb2      Tb     0.218750000000     0.812500000000     0.312500000000     2.00837    
C1       C      0.139225000000     0.882000000000     0.629650000000     0.515183   
C2       C      0.110775000000     0.868000000000     0.620350000000     0.515181   
C3       C      0.224125000000     0.757000000000     0.504650000000     0.515165   
C4       C      0.231125000000     0.879650000000     0.743000000000     0.51518    
C5       C      0.228775000000     0.995350000000     0.632000000000     0.515175   
C6       C      0.025875000000     0.993000000000     0.745350000000     0.515167   
C7       C      0.018875000000     0.870350000000     0.507000000000     0.51518    
C8       C      0.021225000000     0.754650000000     0.618000000000     0.515174   
K1       K      0.093750000000     0.812500000000     0.562500000000     0.912191   
K2       K      0.156250000000     0.937500000000     0.687500000000     0.912193   
O1       O      0.043900000000     0.889675000000     0.739225000000    -0.616798   
O2       O      0.056325000000     0.964825000000     0.719675000000    -0.62851    
O3       O      0.047800000000     0.985325000000     0.635775000000    -0.616803   
O4       O      0.206100000000     0.860325000000     0.510775000000    -0.616798   
O5       O      0.115825000000     0.910175000000     0.655325000000    -0.628515   
O6       O      0.033125000000     0.760775000000     0.514675000000    -0.616795   
O7       O      0.021150000000     0.844675000000     0.535175000000    -0.628519   
O8       O      0.066425000000     0.885775000000     0.639675000000    -0.616811   
O9       O      0.183575000000     0.864225000000     0.610325000000    -0.616813   
O10      O      0.216875000000     0.989225000000     0.735325000000    -0.616794   
O11      O      0.228850000000     0.905325000000     0.714825000000    -0.628519   
O12      O      0.202200000000     0.764675000000     0.614225000000    -0.616804   
O13      O      0.193675000000     0.785175000000     0.530325000000    -0.628509   
O14      O      0.026000000000     0.780325000000     0.589825000000    -0.628511   
O15      O      0.134175000000     0.839825000000     0.594675000000    -0.628514   
O16      O      0.224000000000     0.969675000000     0.660175000000    -0.628511   
Tb1      Tb     0.031250000000     0.937500000000     0.687500000000     2.00837    
Tb2      Tb     0.218750000000     0.812500000000     0.562500000000     2.00837    
C1       C      0.139225000000     0.882000000000     0.879650000000     0.515183   
C2       C      0.110775000000     0.868000000000     0.870350000000     0.515181   
C3       C      0.224125000000     0.757000000000     0.754650000000     0.515165   
C4       C      0.231125000000     0.879650000000     0.993000000000     0.51518    
C5       C      0.228775000000     0.995350000000     0.882000000000     0.515175   
C6       C      0.025875000000     0.993000000000     0.995350000000     0.515167   
C7       C      0.018875000000     0.870350000000     0.757000000000     0.51518    
C8       C      0.021225000000     0.754650000000     0.868000000000     0.515174   
K1       K      0.093750000000     0.812500000000     0.812500000000     0.912191   
K2       K      0.156250000000     0.937500000000     0.937500000000     0.912193   
O1       O      0.043900000000     0.889675000000     0.989225000000    -0.616798   
O2       O      0.056325000000     0.964825000000     0.969675000000    -0.62851    
O3       O      0.047800000000     0.985325000000     0.885775000000    -0.616803   
O4       O      0.206100000000     0.860325000000     0.760775000000    -0.616798   
O5       O      0.115825000000     0.910175000000     0.905325000000    -0.628515   
O6       O      0.033125000000     0.760775000000     0.764675000000    -0.616795   
O7       O      0.021150000000     0.844675000000     0.785175000000    -0.628519   
O8       O      0.066425000000     0.885775000000     0.889675000000    -0.616811   
O9       O      0.183575000000     0.864225000000     0.860325000000    -0.616813   
O10      O      0.216875000000     0.989225000000     0.985325000000    -0.616794   
O11      O      0.228850000000     0.905325000000     0.964825000000    -0.628519   
O12      O      0.202200000000     0.764675000000     0.864225000000    -0.616804   
O13      O      0.193675000000     0.785175000000     0.780325000000    -0.628509   
O14      O      0.026000000000     0.780325000000     0.839825000000    -0.628511   
O15      O      0.134175000000     0.839825000000     0.844675000000    -0.628514   
O16      O      0.224000000000     0.969675000000     0.910175000000    -0.628511   
Tb1      Tb     0.031250000000     0.937500000000     0.937500000000     2.00837    
Tb2      Tb     0.218750000000     0.812500000000     0.812500000000     2.00837    
C1       C      0.389225000000     0.132000000000     0.129650000000     0.515183   
C2       C      0.360775000000     0.118000000000     0.120350000000     0.515181   
C3       C      0.474125000000     0.007000000000     0.004650000000     0.515165   
C4       C      0.481125000000     0.129650000000     0.243000000000     0.51518    
C5       C      0.478775000000     0.245350000000     0.132000000000     0.515175   
C6       C      0.275875000000     0.243000000000     0.245350000000     0.515167   
C7       C      0.268875000000     0.120350000000     0.007000000000     0.51518    
C8       C      0.271225000000     0.004650000000     0.118000000000     0.515174   
K1       K      0.343750000000     0.062500000000     0.062500000000     0.912191   
K2       K      0.406250000000     0.187500000000     0.187500000000     0.912193   
O1       O      0.293900000000     0.139675000000     0.239225000000    -0.616798   
O2       O      0.306325000000     0.214825000000     0.219675000000    -0.62851    
O3       O      0.297800000000     0.235325000000     0.135775000000    -0.616803   
O4       O      0.456100000000     0.110325000000     0.010775000000    -0.616798   
O5       O      0.365825000000     0.160175000000     0.155325000000    -0.628515   
O6       O      0.283125000000     0.010775000000     0.014675000000    -0.616795   
O7       O      0.271150000000     0.094675000000     0.035175000000    -0.628519   
O8       O      0.316425000000     0.135775000000     0.139675000000    -0.616811   
O9       O      0.433575000000     0.114225000000     0.110325000000    -0.616813   
O10      O      0.466875000000     0.239225000000     0.235325000000    -0.616794   
O11      O      0.478850000000     0.155325000000     0.214825000000    -0.628519   
O12      O      0.452200000000     0.014675000000     0.114225000000    -0.616804   
O13      O      0.443675000000     0.035175000000     0.030325000000    -0.628509   
O14      O      0.276000000000     0.030325000000     0.089825000000    -0.628511   
O15      O      0.384175000000     0.089825000000     0.094675000000    -0.628514   
O16      O      0.474000000000     0.219675000000     0.160175000000    -0.628511   
Tb1      Tb     0.281250000000     0.187500000000     0.187500000000     2.00837    
Tb2      Tb     0.468750000000     0.062500000000     0.062500000000     2.00837    
C1       C      0.389225000000     0.132000000000     0.379650000000     0.515183   
C2       C      0.360775000000     0.118000000000     0.370350000000     0.515181   
C3       C      0.474125000000     0.007000000000     0.254650000000     0.515165   
C4       C      0.481125000000     0.129650000000     0.493000000000     0.51518    
C5       C      0.478775000000     0.245350000000     0.382000000000     0.515175   
C6       C      0.275875000000     0.243000000000     0.495350000000     0.515167   
C7       C      0.268875000000     0.120350000000     0.257000000000     0.51518    
C8       C      0.271225000000     0.004650000000     0.368000000000     0.515174   
K1       K      0.343750000000     0.062500000000     0.312500000000     0.912191   
K2       K      0.406250000000     0.187500000000     0.437500000000     0.912193   
O1       O      0.293900000000     0.139675000000     0.489225000000    -0.616798   
O2       O      0.306325000000     0.214825000000     0.469675000000    -0.62851    
O3       O      0.297800000000     0.235325000000     0.385775000000    -0.616803   
O4       O      0.456100000000     0.110325000000     0.260775000000    -0.616798   
O5       O      0.365825000000     0.160175000000     0.405325000000    -0.628515   
O6       O      0.283125000000     0.010775000000     0.264675000000    -0.616795   
O7       O      0.271150000000     0.094675000000     0.285175000000    -0.628519   
O8       O      0.316425000000     0.135775000000     0.389675000000    -0.616811   
O9       O      0.433575000000     0.114225000000     0.360325000000    -0.616813   
O10      O      0.466875000000     0.239225000000     0.485325000000    -0.616794   
O11      O      0.478850000000     0.155325000000     0.464825000000    -0.628519   
O12      O      0.452200000000     0.014675000000     0.364225000000    -0.616804   
O13      O      0.443675000000     0.035175000000     0.280325000000    -0.628509   
O14      O      0.276000000000     0.030325000000     0.339825000000    -0.628511   
O15      O      0.384175000000     0.089825000000     0.344675000000    -0.628514   
O16      O      0.474000000000     0.219675000000     0.410175000000    -0.628511   
Tb1      Tb     0.281250000000     0.187500000000     0.437500000000     2.00837    
Tb2      Tb     0.468750000000     0.062500000000     0.312500000000     2.00837    
C1       C      0.389225000000     0.132000000000     0.629650000000     0.515183   
C2       C      0.360775000000     0.118000000000     0.620350000000     0.515181   
C3       C      0.474125000000     0.007000000000     0.504650000000     0.515165   
C4       C      0.481125000000     0.129650000000     0.743000000000     0.51518    
C5       C      0.478775000000     0.245350000000     0.632000000000     0.515175   
C6       C      0.275875000000     0.243000000000     0.745350000000     0.515167   
C7       C      0.268875000000     0.120350000000     0.507000000000     0.51518    
C8       C      0.271225000000     0.004650000000     0.618000000000     0.515174   
K1       K      0.343750000000     0.062500000000     0.562500000000     0.912191   
K2       K      0.406250000000     0.187500000000     0.687500000000     0.912193   
O1       O      0.293900000000     0.139675000000     0.739225000000    -0.616798   
O2       O      0.306325000000     0.214825000000     0.719675000000    -0.62851    
O3       O      0.297800000000     0.235325000000     0.635775000000    -0.616803   
O4       O      0.456100000000     0.110325000000     0.510775000000    -0.616798   
O5       O      0.365825000000     0.160175000000     0.655325000000    -0.628515   
O6       O      0.283125000000     0.010775000000     0.514675000000    -0.616795   
O7       O      0.271150000000     0.094675000000     0.535175000000    -0.628519   
O8       O      0.316425000000     0.135775000000     0.639675000000    -0.616811   
O9       O      0.433575000000     0.114225000000     0.610325000000    -0.616813   
O10      O      0.466875000000     0.239225000000     0.735325000000    -0.616794   
O11      O      0.478850000000     0.155325000000     0.714825000000    -0.628519   
O12      O      0.452200000000     0.014675000000     0.614225000000    -0.616804   
O13      O      0.443675000000     0.035175000000     0.530325000000    -0.628509   
O14      O      0.276000000000     0.030325000000     0.589825000000    -0.628511   
O15      O      0.384175000000     0.089825000000     0.594675000000    -0.628514   
O16      O      0.474000000000     0.219675000000     0.660175000000    -0.628511   
Tb1      Tb     0.281250000000     0.187500000000     0.687500000000     2.00837    
Tb2      Tb     0.468750000000     0.062500000000     0.562500000000     2.00837    
C1       C      0.389225000000     0.132000000000     0.879650000000     0.515183   
C2       C      0.360775000000     0.118000000000     0.870350000000     0.515181   
C3       C      0.474125000000     0.007000000000     0.754650000000     0.515165   
C4       C      0.481125000000     0.129650000000     0.993000000000     0.51518    
C5       C      0.478775000000     0.245350000000     0.882000000000     0.515175   
C6       C      0.275875000000     0.243000000000     0.995350000000     0.515167   
C7       C      0.268875000000     0.120350000000     0.757000000000     0.51518    
C8       C      0.271225000000     0.004650000000     0.868000000000     0.515174   
K1       K      0.343750000000     0.062500000000     0.812500000000     0.912191   
K2       K      0.406250000000     0.187500000000     0.937500000000     0.912193   
O1       O      0.293900000000     0.139675000000     0.989225000000    -0.616798   
O2       O      0.306325000000     0.214825000000     0.969675000000    -0.62851    
O3       O      0.297800000000     0.235325000000     0.885775000000    -0.616803   
O4       O      0.456100000000     0.110325000000     0.760775000000    -0.616798   
O5       O      0.365825000000     0.160175000000     0.905325000000    -0.628515   
O6       O      0.283125000000     0.010775000000     0.764675000000    -0.616795   
O7       O      0.271150000000     0.094675000000     0.785175000000    -0.628519   
O8       O      0.316425000000     0.135775000000     0.889675000000    -0.616811   
O9       O      0.433575000000     0.114225000000     0.860325000000    -0.616813   
O10      O      0.466875000000     0.239225000000     0.985325000000    -0.616794   
O11      O      0.478850000000     0.155325000000     0.964825000000    -0.628519   
O12      O      0.452200000000     0.014675000000     0.864225000000    -0.616804   
O13      O      0.443675000000     0.035175000000     0.780325000000    -0.628509   
O14      O      0.276000000000     0.030325000000     0.839825000000    -0.628511   
O15      O      0.384175000000     0.089825000000     0.844675000000    -0.628514   
O16      O      0.474000000000     0.219675000000     0.910175000000    -0.628511   
Tb1      Tb     0.281250000000     0.187500000000     0.937500000000     2.00837    
Tb2      Tb     0.468750000000     0.062500000000     0.812500000000     2.00837    
C1       C      0.389225000000     0.382000000000     0.129650000000     0.515183   
C2       C      0.360775000000     0.368000000000     0.120350000000     0.515181   
C3       C      0.474125000000     0.257000000000     0.004650000000     0.515165   
C4       C      0.481125000000     0.379650000000     0.243000000000     0.51518    
C5       C      0.478775000000     0.495350000000     0.132000000000     0.515175   
C6       C      0.275875000000     0.493000000000     0.245350000000     0.515167   
C7       C      0.268875000000     0.370350000000     0.007000000000     0.51518    
C8       C      0.271225000000     0.254650000000     0.118000000000     0.515174   
K1       K      0.343750000000     0.312500000000     0.062500000000     0.912191   
K2       K      0.406250000000     0.437500000000     0.187500000000     0.912193   
O1       O      0.293900000000     0.389675000000     0.239225000000    -0.616798   
O2       O      0.306325000000     0.464825000000     0.219675000000    -0.62851    
O3       O      0.297800000000     0.485325000000     0.135775000000    -0.616803   
O4       O      0.456100000000     0.360325000000     0.010775000000    -0.616798   
O5       O      0.365825000000     0.410175000000     0.155325000000    -0.628515   
O6       O      0.283125000000     0.260775000000     0.014675000000    -0.616795   
O7       O      0.271150000000     0.344675000000     0.035175000000    -0.628519   
O8       O      0.316425000000     0.385775000000     0.139675000000    -0.616811   
O9       O      0.433575000000     0.364225000000     0.110325000000    -0.616813   
O10      O      0.466875000000     0.489225000000     0.235325000000    -0.616794   
O11      O      0.478850000000     0.405325000000     0.214825000000    -0.628519   
O12      O      0.452200000000     0.264675000000     0.114225000000    -0.616804   
O13      O      0.443675000000     0.285175000000     0.030325000000    -0.628509   
O14      O      0.276000000000     0.280325000000     0.089825000000    -0.628511   
O15      O      0.384175000000     0.339825000000     0.094675000000    -0.628514   
O16      O      0.474000000000     0.469675000000     0.160175000000    -0.628511   
Tb1      Tb     0.281250000000     0.437500000000     0.187500000000     2.00837    
Tb2      Tb     0.468750000000     0.312500000000     0.062500000000     2.00837    
C1       C      0.389225000000     0.382000000000     0.379650000000     0.515183   
C2       C      0.360775000000     0.368000000000     0.370350000000     0.515181   
C3       C      0.474125000000     0.257000000000     0.254650000000     0.515165   
C4       C      0.481125000000     0.379650000000     0.493000000000     0.51518    
C5       C      0.478775000000     0.495350000000     0.382000000000     0.515175   
C6       C      0.275875000000     0.493000000000     0.495350000000     0.515167   
C7       C      0.268875000000     0.370350000000     0.257000000000     0.51518    
C8       C      0.271225000000     0.254650000000     0.368000000000     0.515174   
K1       K      0.343750000000     0.312500000000     0.312500000000     0.912191   
K2       K      0.406250000000     0.437500000000     0.437500000000     0.912193   
O1       O      0.293900000000     0.389675000000     0.489225000000    -0.616798   
O2       O      0.306325000000     0.464825000000     0.469675000000    -0.62851    
O3       O      0.297800000000     0.485325000000     0.385775000000    -0.616803   
O4       O      0.456100000000     0.360325000000     0.260775000000    -0.616798   
O5       O      0.365825000000     0.410175000000     0.405325000000    -0.628515   
O6       O      0.283125000000     0.260775000000     0.264675000000    -0.616795   
O7       O      0.271150000000     0.344675000000     0.285175000000    -0.628519   
O8       O      0.316425000000     0.385775000000     0.389675000000    -0.616811   
O9       O      0.433575000000     0.364225000000     0.360325000000    -0.616813   
O10      O      0.466875000000     0.489225000000     0.485325000000    -0.616794   
O11      O      0.478850000000     0.405325000000     0.464825000000    -0.628519   
O12      O      0.452200000000     0.264675000000     0.364225000000    -0.616804   
O13      O      0.443675000000     0.285175000000     0.280325000000    -0.628509   
O14      O      0.276000000000     0.280325000000     0.339825000000    -0.628511   
O15      O      0.384175000000     0.339825000000     0.344675000000    -0.628514   
O16      O      0.474000000000     0.469675000000     0.410175000000    -0.628511   
Tb1      Tb     0.281250000000     0.437500000000     0.437500000000     2.00837    
Tb2      Tb     0.468750000000     0.312500000000     0.312500000000     2.00837    
C1       C      0.389225000000     0.382000000000     0.629650000000     0.515183   
C2       C      0.360775000000     0.368000000000     0.620350000000     0.515181   
C3       C      0.474125000000     0.257000000000     0.504650000000     0.515165   
C4       C      0.481125000000     0.379650000000     0.743000000000     0.51518    
C5       C      0.478775000000     0.495350000000     0.632000000000     0.515175   
C6       C      0.275875000000     0.493000000000     0.745350000000     0.515167   
C7       C      0.268875000000     0.370350000000     0.507000000000     0.51518    
C8       C      0.271225000000     0.254650000000     0.618000000000     0.515174   
K1       K      0.343750000000     0.312500000000     0.562500000000     0.912191   
K2       K      0.406250000000     0.437500000000     0.687500000000     0.912193   
O1       O      0.293900000000     0.389675000000     0.739225000000    -0.616798   
O2       O      0.306325000000     0.464825000000     0.719675000000    -0.62851    
O3       O      0.297800000000     0.485325000000     0.635775000000    -0.616803   
O4       O      0.456100000000     0.360325000000     0.510775000000    -0.616798   
O5       O      0.365825000000     0.410175000000     0.655325000000    -0.628515   
O6       O      0.283125000000     0.260775000000     0.514675000000    -0.616795   
O7       O      0.271150000000     0.344675000000     0.535175000000    -0.628519   
O8       O      0.316425000000     0.385775000000     0.639675000000    -0.616811   
O9       O      0.433575000000     0.364225000000     0.610325000000    -0.616813   
O10      O      0.466875000000     0.489225000000     0.735325000000    -0.616794   
O11      O      0.478850000000     0.405325000000     0.714825000000    -0.628519   
O12      O      0.452200000000     0.264675000000     0.614225000000    -0.616804   
O13      O      0.443675000000     0.285175000000     0.530325000000    -0.628509   
O14      O      0.276000000000     0.280325000000     0.589825000000    -0.628511   
O15      O      0.384175000000     0.339825000000     0.594675000000    -0.628514   
O16      O      0.474000000000     0.469675000000     0.660175000000    -0.628511   
Tb1      Tb     0.281250000000     0.437500000000     0.687500000000     2.00837    
Tb2      Tb     0.468750000000     0.312500000000     0.562500000000     2.00837    
C1       C      0.389225000000     0.382000000000     0.879650000000     0.515183   
C2       C      0.360775000000     0.368000000000     0.870350000000     0.515181   
C3       C      0.474125000000     0.257000000000     0.754650000000     0.515165   
C4       C      0.481125000000     0.379650000000     0.993000000000     0.51518    
C5       C      0.478775000000     0.495350000000     0.882000000000     0.515175   
C6       C      0.275875000000     0.493000000000     0.995350000000     0.515167   
C7       C      0.268875000000     0.370350000000     0.757000000000     0.51518    
C8       C      0.271225000000     0.254650000000     0.868000000000     0.515174   
K1       K      0.343750000000     0.312500000000     0.812500000000     0.912191   
K2       K      0.406250000000     0.437500000000     0.937500000000     0.912193   
O1       O      0.293900000000     0.389675000000     0.989225000000    -0.616798   
O2       O      0.306325000000     0.464825000000     0.969675000000    -0.62851    
O3       O      0.297800000000     0.485325000000     0.885775000000    -0.616803   
O4       O      0.456100000000     0.360325000000     0.760775000000    -0.616798   
O5       O      0.365825000000     0.410175000000     0.905325000000    -0.628515   
O6       O      0.283125000000     0.260775000000     0.764675000000    -0.616795   
O7       O      0.271150000000     0.344675000000     0.785175000000    -0.628519   
O8       O      0.316425000000     0.385775000000     0.889675000000    -0.616811   
O9       O      0.433575000000     0.364225000000     0.860325000000    -0.616813   
O10      O      0.466875000000     0.489225000000     0.985325000000    -0.616794   
O11      O      0.478850000000     0.405325000000     0.964825000000    -0.628519   
O12      O      0.452200000000     0.264675000000     0.864225000000    -0.616804   
O13      O      0.443675000000     0.285175000000     0.780325000000    -0.628509   
O14      O      0.276000000000     0.280325000000     0.839825000000    -0.628511   
O15      O      0.384175000000     0.339825000000     0.844675000000    -0.628514   
O16      O      0.474000000000     0.469675000000     0.910175000000    -0.628511   
Tb1      Tb     0.281250000000     0.437500000000     0.937500000000     2.00837    
Tb2      Tb     0.468750000000     0.312500000000     0.812500000000     2.00837    
C1       C      0.389225000000     0.632000000000     0.129650000000     0.515183   
C2       C      0.360775000000     0.618000000000     0.120350000000     0.515181   
C3       C      0.474125000000     0.507000000000     0.004650000000     0.515165   
C4       C      0.481125000000     0.629650000000     0.243000000000     0.51518    
C5       C      0.478775000000     0.745350000000     0.132000000000     0.515175   
C6       C      0.275875000000     0.743000000000     0.245350000000     0.515167   
C7       C      0.268875000000     0.620350000000     0.007000000000     0.51518    
C8       C      0.271225000000     0.504650000000     0.118000000000     0.515174   
K1       K      0.343750000000     0.562500000000     0.062500000000     0.912191   
K2       K      0.406250000000     0.687500000000     0.187500000000     0.912193   
O1       O      0.293900000000     0.639675000000     0.239225000000    -0.616798   
O2       O      0.306325000000     0.714825000000     0.219675000000    -0.62851    
O3       O      0.297800000000     0.735325000000     0.135775000000    -0.616803   
O4       O      0.456100000000     0.610325000000     0.010775000000    -0.616798   
O5       O      0.365825000000     0.660175000000     0.155325000000    -0.628515   
O6       O      0.283125000000     0.510775000000     0.014675000000    -0.616795   
O7       O      0.271150000000     0.594675000000     0.035175000000    -0.628519   
O8       O      0.316425000000     0.635775000000     0.139675000000    -0.616811   
O9       O      0.433575000000     0.614225000000     0.110325000000    -0.616813   
O10      O      0.466875000000     0.739225000000     0.235325000000    -0.616794   
O11      O      0.478850000000     0.655325000000     0.214825000000    -0.628519   
O12      O      0.452200000000     0.514675000000     0.114225000000    -0.616804   
O13      O      0.443675000000     0.535175000000     0.030325000000    -0.628509   
O14      O      0.276000000000     0.530325000000     0.089825000000    -0.628511   
O15      O      0.384175000000     0.589825000000     0.094675000000    -0.628514   
O16      O      0.474000000000     0.719675000000     0.160175000000    -0.628511   
Tb1      Tb     0.281250000000     0.687500000000     0.187500000000     2.00837    
Tb2      Tb     0.468750000000     0.562500000000     0.062500000000     2.00837    
C1       C      0.389225000000     0.632000000000     0.379650000000     0.515183   
C2       C      0.360775000000     0.618000000000     0.370350000000     0.515181   
C3       C      0.474125000000     0.507000000000     0.254650000000     0.515165   
C4       C      0.481125000000     0.629650000000     0.493000000000     0.51518    
C5       C      0.478775000000     0.745350000000     0.382000000000     0.515175   
C6       C      0.275875000000     0.743000000000     0.495350000000     0.515167   
C7       C      0.268875000000     0.620350000000     0.257000000000     0.51518    
C8       C      0.271225000000     0.504650000000     0.368000000000     0.515174   
K1       K      0.343750000000     0.562500000000     0.312500000000     0.912191   
K2       K      0.406250000000     0.687500000000     0.437500000000     0.912193   
O1       O      0.293900000000     0.639675000000     0.489225000000    -0.616798   
O2       O      0.306325000000     0.714825000000     0.469675000000    -0.62851    
O3       O      0.297800000000     0.735325000000     0.385775000000    -0.616803   
O4       O      0.456100000000     0.610325000000     0.260775000000    -0.616798   
O5       O      0.365825000000     0.660175000000     0.405325000000    -0.628515   
O6       O      0.283125000000     0.510775000000     0.264675000000    -0.616795   
O7       O      0.271150000000     0.594675000000     0.285175000000    -0.628519   
O8       O      0.316425000000     0.635775000000     0.389675000000    -0.616811   
O9       O      0.433575000000     0.614225000000     0.360325000000    -0.616813   
O10      O      0.466875000000     0.739225000000     0.485325000000    -0.616794   
O11      O      0.478850000000     0.655325000000     0.464825000000    -0.628519   
O12      O      0.452200000000     0.514675000000     0.364225000000    -0.616804   
O13      O      0.443675000000     0.535175000000     0.280325000000    -0.628509   
O14      O      0.276000000000     0.530325000000     0.339825000000    -0.628511   
O15      O      0.384175000000     0.589825000000     0.344675000000    -0.628514   
O16      O      0.474000000000     0.719675000000     0.410175000000    -0.628511   
Tb1      Tb     0.281250000000     0.687500000000     0.437500000000     2.00837    
Tb2      Tb     0.468750000000     0.562500000000     0.312500000000     2.00837    
C1       C      0.389225000000     0.632000000000     0.629650000000     0.515183   
C2       C      0.360775000000     0.618000000000     0.620350000000     0.515181   
C3       C      0.474125000000     0.507000000000     0.504650000000     0.515165   
C4       C      0.481125000000     0.629650000000     0.743000000000     0.51518    
C5       C      0.478775000000     0.745350000000     0.632000000000     0.515175   
C6       C      0.275875000000     0.743000000000     0.745350000000     0.515167   
C7       C      0.268875000000     0.620350000000     0.507000000000     0.51518    
C8       C      0.271225000000     0.504650000000     0.618000000000     0.515174   
K1       K      0.343750000000     0.562500000000     0.562500000000     0.912191   
K2       K      0.406250000000     0.687500000000     0.687500000000     0.912193   
O1       O      0.293900000000     0.639675000000     0.739225000000    -0.616798   
O2       O      0.306325000000     0.714825000000     0.719675000000    -0.62851    
O3       O      0.297800000000     0.735325000000     0.635775000000    -0.616803   
O4       O      0.456100000000     0.610325000000     0.510775000000    -0.616798   
O5       O      0.365825000000     0.660175000000     0.655325000000    -0.628515   
O6       O      0.283125000000     0.510775000000     0.514675000000    -0.616795   
O7       O      0.271150000000     0.594675000000     0.535175000000    -0.628519   
O8       O      0.316425000000     0.635775000000     0.639675000000    -0.616811   
O9       O      0.433575000000     0.614225000000     0.610325000000    -0.616813   
O10      O      0.466875000000     0.739225000000     0.735325000000    -0.616794   
O11      O      0.478850000000     0.655325000000     0.714825000000    -0.628519   
O12      O      0.452200000000     0.514675000000     0.614225000000    -0.616804   
O13      O      0.443675000000     0.535175000000     0.530325000000    -0.628509   
O14      O      0.276000000000     0.530325000000     0.589825000000    -0.628511   
O15      O      0.384175000000     0.589825000000     0.594675000000    -0.628514   
O16      O      0.474000000000     0.719675000000     0.660175000000    -0.628511   
Tb1      Tb     0.281250000000     0.687500000000     0.687500000000     2.00837    
Tb2      Tb     0.468750000000     0.562500000000     0.562500000000     2.00837    
C1       C      0.389225000000     0.632000000000     0.879650000000     0.515183   
C2       C      0.360775000000     0.618000000000     0.870350000000     0.515181   
C3       C      0.474125000000     0.507000000000     0.754650000000     0.515165   
C4       C      0.481125000000     0.629650000000     0.993000000000     0.51518    
C5       C      0.478775000000     0.745350000000     0.882000000000     0.515175   
C6       C      0.275875000000     0.743000000000     0.995350000000     0.515167   
C7       C      0.268875000000     0.620350000000     0.757000000000     0.51518    
C8       C      0.271225000000     0.504650000000     0.868000000000     0.515174   
K1       K      0.343750000000     0.562500000000     0.812500000000     0.912191   
K2       K      0.406250000000     0.687500000000     0.937500000000     0.912193   
O1       O      0.293900000000     0.639675000000     0.989225000000    -0.616798   
O2       O      0.306325000000     0.714825000000     0.969675000000    -0.62851    
O3       O      0.297800000000     0.735325000000     0.885775000000    -0.616803   
O4       O      0.456100000000     0.610325000000     0.760775000000    -0.616798   
O5       O      0.365825000000     0.660175000000     0.905325000000    -0.628515   
O6       O      0.283125000000     0.510775000000     0.764675000000    -0.616795   
O7       O      0.271150000000     0.594675000000     0.785175000000    -0.628519   
O8       O      0.316425000000     0.635775000000     0.889675000000    -0.616811   
O9       O      0.433575000000     0.614225000000     0.860325000000    -0.616813   
O10      O      0.466875000000     0.739225000000     0.985325000000    -0.616794   
O11      O      0.478850000000     0.655325000000     0.964825000000    -0.628519   
O12      O      0.452200000000     0.514675000000     0.864225000000    -0.616804   
O13      O      0.443675000000     0.535175000000     0.780325000000    -0.628509   
O14      O      0.276000000000     0.530325000000     0.839825000000    -0.628511   
O15      O      0.384175000000     0.589825000000     0.844675000000    -0.628514   
O16      O      0.474000000000     0.719675000000     0.910175000000    -0.628511   
Tb1      Tb     0.281250000000     0.687500000000     0.937500000000     2.00837    
Tb2      Tb     0.468750000000     0.562500000000     0.812500000000     2.00837    
C1       C      0.389225000000     0.882000000000     0.129650000000     0.515183   
C2       C      0.360775000000     0.868000000000     0.120350000000     0.515181   
C3       C      0.474125000000     0.757000000000     0.004650000000     0.515165   
C4       C      0.481125000000     0.879650000000     0.243000000000     0.51518    
C5       C      0.478775000000     0.995350000000     0.132000000000     0.515175   
C6       C      0.275875000000     0.993000000000     0.245350000000     0.515167   
C7       C      0.268875000000     0.870350000000     0.007000000000     0.51518    
C8       C      0.271225000000     0.754650000000     0.118000000000     0.515174   
K1       K      0.343750000000     0.812500000000     0.062500000000     0.912191   
K2       K      0.406250000000     0.937500000000     0.187500000000     0.912193   
O1       O      0.293900000000     0.889675000000     0.239225000000    -0.616798   
O2       O      0.306325000000     0.964825000000     0.219675000000    -0.62851    
O3       O      0.297800000000     0.985325000000     0.135775000000    -0.616803   
O4       O      0.456100000000     0.860325000000     0.010775000000    -0.616798   
O5       O      0.365825000000     0.910175000000     0.155325000000    -0.628515   
O6       O      0.283125000000     0.760775000000     0.014675000000    -0.616795   
O7       O      0.271150000000     0.844675000000     0.035175000000    -0.628519   
O8       O      0.316425000000     0.885775000000     0.139675000000    -0.616811   
O9       O      0.433575000000     0.864225000000     0.110325000000    -0.616813   
O10      O      0.466875000000     0.989225000000     0.235325000000    -0.616794   
O11      O      0.478850000000     0.905325000000     0.214825000000    -0.628519   
O12      O      0.452200000000     0.764675000000     0.114225000000    -0.616804   
O13      O      0.443675000000     0.785175000000     0.030325000000    -0.628509   
O14      O      0.276000000000     0.780325000000     0.089825000000    -0.628511   
O15      O      0.384175000000     0.839825000000     0.094675000000    -0.628514   
O16      O      0.474000000000     0.969675000000     0.160175000000    -0.628511   
Tb1      Tb     0.281250000000     0.937500000000     0.187500000000     2.00837    
Tb2      Tb     0.468750000000     0.812500000000     0.062500000000     2.00837    
C1       C      0.389225000000     0.882000000000     0.379650000000     0.515183   
C2       C      0.360775000000     0.868000000000     0.370350000000     0.515181   
C3       C      0.474125000000     0.757000000000     0.254650000000     0.515165   
C4       C      0.481125000000     0.879650000000     0.493000000000     0.51518    
C5       C      0.478775000000     0.995350000000     0.382000000000     0.515175   
C6       C      0.275875000000     0.993000000000     0.495350000000     0.515167   
C7       C      0.268875000000     0.870350000000     0.257000000000     0.51518    
C8       C      0.271225000000     0.754650000000     0.368000000000     0.515174   
K1       K      0.343750000000     0.812500000000     0.312500000000     0.912191   
K2       K      0.406250000000     0.937500000000     0.437500000000     0.912193   
O1       O      0.293900000000     0.889675000000     0.489225000000    -0.616798   
O2       O      0.306325000000     0.964825000000     0.469675000000    -0.62851    
O3       O      0.297800000000     0.985325000000     0.385775000000    -0.616803   
O4       O      0.456100000000     0.860325000000     0.260775000000    -0.616798   
O5       O      0.365825000000     0.910175000000     0.405325000000    -0.628515   
O6       O      0.283125000000     0.760775000000     0.264675000000    -0.616795   
O7       O      0.271150000000     0.844675000000     0.285175000000    -0.628519   
O8       O      0.316425000000     0.885775000000     0.389675000000    -0.616811   
O9       O      0.433575000000     0.864225000000     0.360325000000    -0.616813   
O10      O      0.466875000000     0.989225000000     0.485325000000    -0.616794   
O11      O      0.478850000000     0.905325000000     0.464825000000    -0.628519   
O12      O      0.452200000000     0.764675000000     0.364225000000    -0.616804   
O13      O      0.443675000000     0.785175000000     0.280325000000    -0.628509   
O14      O      0.276000000000     0.780325000000     0.339825000000    -0.628511   
O15      O      0.384175000000     0.839825000000     0.344675000000    -0.628514   
O16      O      0.474000000000     0.969675000000     0.410175000000    -0.628511   
Tb1      Tb     0.281250000000     0.937500000000     0.437500000000     2.00837    
Tb2      Tb     0.468750000000     0.812500000000     0.312500000000     2.00837    
C1       C      0.389225000000     0.882000000000     0.629650000000     0.515183   
C2       C      0.360775000000     0.868000000000     0.620350000000     0.515181   
C3       C      0.474125000000     0.757000000000     0.504650000000     0.515165   
C4       C      0.481125000000     0.879650000000     0.743000000000     0.51518    
C5       C      0.478775000000     0.995350000000     0.632000000000     0.515175   
C6       C      0.275875000000     0.993000000000     0.745350000000     0.515167   
C7       C      0.268875000000     0.870350000000     0.507000000000     0.51518    
C8       C      0.271225000000     0.754650000000     0.618000000000     0.515174   
K1       K      0.343750000000     0.812500000000     0.562500000000     0.912191   
K2       K      0.406250000000     0.937500000000     0.687500000000     0.912193   
O1       O      0.293900000000     0.889675000000     0.739225000000    -0.616798   
O2       O      0.306325000000     0.964825000000     0.719675000000    -0.62851    
O3       O      0.297800000000     0.985325000000     0.635775000000    -0.616803   
O4       O      0.456100000000     0.860325000000     0.510775000000    -0.616798   
O5       O      0.365825000000     0.910175000000     0.655325000000    -0.628515   
O6       O      0.283125000000     0.760775000000     0.514675000000    -0.616795   
O7       O      0.271150000000     0.844675000000     0.535175000000    -0.628519   
O8       O      0.316425000000     0.885775000000     0.639675000000    -0.616811   
O9       O      0.433575000000     0.864225000000     0.610325000000    -0.616813   
O10      O      0.466875000000     0.989225000000     0.735325000000    -0.616794   
O11      O      0.478850000000     0.905325000000     0.714825000000    -0.628519   
O12      O      0.452200000000     0.764675000000     0.614225000000    -0.616804   
O13      O      0.443675000000     0.785175000000     0.530325000000    -0.628509   
O14      O      0.276000000000     0.780325000000     0.589825000000    -0.628511   
O15      O      0.384175000000     0.839825000000     0.594675000000    -0.628514   
O16      O      0.474000000000     0.969675000000     0.660175000000    -0.628511   
Tb1      Tb     0.281250000000     0.937500000000     0.687500000000     2.00837    
Tb2      Tb     0.468750000000     0.812500000000     0.562500000000     2.00837    
C1       C      0.389225000000     0.882000000000     0.879650000000     0.515183   
C2       C      0.360775000000     0.868000000000     0.870350000000     0.515181   
C3       C      0.474125000000     0.757000000000     0.754650000000     0.515165   
C4       C      0.481125000000     0.879650000000     0.993000000000     0.51518    
C5       C      0.478775000000     0.995350000000     0.882000000000     0.515175   
C6       C      0.275875000000     0.993000000000     0.995350000000     0.515167   
C7       C      0.268875000000     0.870350000000     0.757000000000     0.51518    
C8       C      0.271225000000     0.754650000000     0.868000000000     0.515174   
K1       K      0.343750000000     0.812500000000     0.812500000000     0.912191   
K2       K      0.406250000000     0.937500000000     0.937500000000     0.912193   
O1       O      0.293900000000     0.889675000000     0.989225000000    -0.616798   
O2       O      0.306325000000     0.964825000000     0.969675000000    -0.62851    
O3       O      0.297800000000     0.985325000000     0.885775000000    -0.616803   
O4       O      0.456100000000     0.860325000000     0.760775000000    -0.616798   
O5       O      0.365825000000     0.910175000000     0.905325000000    -0.628515   
O6       O      0.283125000000     0.760775000000     0.764675000000    -0.616795   
O7       O      0.271150000000     0.844675000000     0.785175000000    -0.628519   
O8       O      0.316425000000     0.885775000000     0.889675000000    -0.616811   
O9       O      0.433575000000     0.864225000000     0.860325000000    -0.616813   
O10      O      0.466875000000     0.989225000000     0.985325000000    -0.616794   
O11      O      0.478850000000     0.905325000000     0.964825000000    -0.628519   
O12      O      0.452200000000     0.764675000000     0.864225000000    -0.616804   
O13      O      0.443675000000     0.785175000000     0.780325000000    -0.628509   
O14      O      0.276000000000     0.780325000000     0.839825000000    -0.628511   
O15      O      0.384175000000     0.839825000000     0.844675000000    -0.628514   
O16      O      0.474000000000     0.969675000000     0.910175000000    -0.628511   
Tb1      Tb     0.281250000000     0.937500000000     0.937500000000     2.00837    
Tb2      Tb     0.468750000000     0.812500000000     0.812500000000     2.00837    
C1       C      0.639225000000     0.132000000000     0.129650000000     0.515183   
C2       C      0.610775000000     0.118000000000     0.120350000000     0.515181   
C3       C      0.724125000000     0.007000000000     0.004650000000     0.515165   
C4       C      0.731125000000     0.129650000000     0.243000000000     0.51518    
C5       C      0.728775000000     0.245350000000     0.132000000000     0.515175   
C6       C      0.525875000000     0.243000000000     0.245350000000     0.515167   
C7       C      0.518875000000     0.120350000000     0.007000000000     0.51518    
C8       C      0.521225000000     0.004650000000     0.118000000000     0.515174   
K1       K      0.593750000000     0.062500000000     0.062500000000     0.912191   
K2       K      0.656250000000     0.187500000000     0.187500000000     0.912193   
O1       O      0.543900000000     0.139675000000     0.239225000000    -0.616798   
O2       O      0.556325000000     0.214825000000     0.219675000000    -0.62851    
O3       O      0.547800000000     0.235325000000     0.135775000000    -0.616803   
O4       O      0.706100000000     0.110325000000     0.010775000000    -0.616798   
O5       O      0.615825000000     0.160175000000     0.155325000000    -0.628515   
O6       O      0.533125000000     0.010775000000     0.014675000000    -0.616795   
O7       O      0.521150000000     0.094675000000     0.035175000000    -0.628519   
O8       O      0.566425000000     0.135775000000     0.139675000000    -0.616811   
O9       O      0.683575000000     0.114225000000     0.110325000000    -0.616813   
O10      O      0.716875000000     0.239225000000     0.235325000000    -0.616794   
O11      O      0.728850000000     0.155325000000     0.214825000000    -0.628519   
O12      O      0.702200000000     0.014675000000     0.114225000000    -0.616804   
O13      O      0.693675000000     0.035175000000     0.030325000000    -0.628509   
O14      O      0.526000000000     0.030325000000     0.089825000000    -0.628511   
O15      O      0.634175000000     0.089825000000     0.094675000000    -0.628514   
O16      O      0.724000000000     0.219675000000     0.160175000000    -0.628511   
Tb1      Tb     0.531250000000     0.187500000000     0.187500000000     2.00837    
Tb2      Tb     0.718750000000     0.062500000000     0.062500000000     2.00837    
C1       C      0.639225000000     0.132000000000     0.379650000000     0.515183   
C2       C      0.610775000000     0.118000000000     0.370350000000     0.515181   
C3       C      0.724125000000     0.007000000000     0.254650000000     0.515165   
C4       C      0.731125000000     0.129650000000     0.493000000000     0.51518    
C5       C      0.728775000000     0.245350000000     0.382000000000     0.515175   
C6       C      0.525875000000     0.243000000000     0.495350000000     0.515167   
C7       C      0.518875000000     0.120350000000     0.257000000000     0.51518    
C8       C      0.521225000000     0.004650000000     0.368000000000     0.515174   
K1       K      0.593750000000     0.062500000000     0.312500000000     0.912191   
K2       K      0.656250000000     0.187500000000     0.437500000000     0.912193   
O1       O      0.543900000000     0.139675000000     0.489225000000    -0.616798   
O2       O      0.556325000000     0.214825000000     0.469675000000    -0.62851    
O3       O      0.547800000000     0.235325000000     0.385775000000    -0.616803   
O4       O      0.706100000000     0.110325000000     0.260775000000    -0.616798   
O5       O      0.615825000000     0.160175000000     0.405325000000    -0.628515   
O6       O      0.533125000000     0.010775000000     0.264675000000    -0.616795   
O7       O      0.521150000000     0.094675000000     0.285175000000    -0.628519   
O8       O      0.566425000000     0.135775000000     0.389675000000    -0.616811   
O9       O      0.683575000000     0.114225000000     0.360325000000    -0.616813   
O10      O      0.716875000000     0.239225000000     0.485325000000    -0.616794   
O11      O      0.728850000000     0.155325000000     0.464825000000    -0.628519   
O12      O      0.702200000000     0.014675000000     0.364225000000    -0.616804   
O13      O      0.693675000000     0.035175000000     0.280325000000    -0.628509   
O14      O      0.526000000000     0.030325000000     0.339825000000    -0.628511   
O15      O      0.634175000000     0.089825000000     0.344675000000    -0.628514   
O16      O      0.724000000000     0.219675000000     0.410175000000    -0.628511   
Tb1      Tb     0.531250000000     0.187500000000     0.437500000000     2.00837    
Tb2      Tb     0.718750000000     0.062500000000     0.312500000000     2.00837    
C1       C      0.639225000000     0.132000000000     0.629650000000     0.515183   
C2       C      0.610775000000     0.118000000000     0.620350000000     0.515181   
C3       C      0.724125000000     0.007000000000     0.504650000000     0.515165   
C4       C      0.731125000000     0.129650000000     0.743000000000     0.51518    
C5       C      0.728775000000     0.245350000000     0.632000000000     0.515175   
C6       C      0.525875000000     0.243000000000     0.745350000000     0.515167   
C7       C      0.518875000000     0.120350000000     0.507000000000     0.51518    
C8       C      0.521225000000     0.004650000000     0.618000000000     0.515174   
K1       K      0.593750000000     0.062500000000     0.562500000000     0.912191   
K2       K      0.656250000000     0.187500000000     0.687500000000     0.912193   
O1       O      0.543900000000     0.139675000000     0.739225000000    -0.616798   
O2       O      0.556325000000     0.214825000000     0.719675000000    -0.62851    
O3       O      0.547800000000     0.235325000000     0.635775000000    -0.616803   
O4       O      0.706100000000     0.110325000000     0.510775000000    -0.616798   
O5       O      0.615825000000     0.160175000000     0.655325000000    -0.628515   
O6       O      0.533125000000     0.010775000000     0.514675000000    -0.616795   
O7       O      0.521150000000     0.094675000000     0.535175000000    -0.628519   
O8       O      0.566425000000     0.135775000000     0.639675000000    -0.616811   
O9       O      0.683575000000     0.114225000000     0.610325000000    -0.616813   
O10      O      0.716875000000     0.239225000000     0.735325000000    -0.616794   
O11      O      0.728850000000     0.155325000000     0.714825000000    -0.628519   
O12      O      0.702200000000     0.014675000000     0.614225000000    -0.616804   
O13      O      0.693675000000     0.035175000000     0.530325000000    -0.628509   
O14      O      0.526000000000     0.030325000000     0.589825000000    -0.628511   
O15      O      0.634175000000     0.089825000000     0.594675000000    -0.628514   
O16      O      0.724000000000     0.219675000000     0.660175000000    -0.628511   
Tb1      Tb     0.531250000000     0.187500000000     0.687500000000     2.00837    
Tb2      Tb     0.718750000000     0.062500000000     0.562500000000     2.00837    
C1       C      0.639225000000     0.132000000000     0.879650000000     0.515183   
C2       C      0.610775000000     0.118000000000     0.870350000000     0.515181   
C3       C      0.724125000000     0.007000000000     0.754650000000     0.515165   
C4       C      0.731125000000     0.129650000000     0.993000000000     0.51518    
C5       C      0.728775000000     0.245350000000     0.882000000000     0.515175   
C6       C      0.525875000000     0.243000000000     0.995350000000     0.515167   
C7       C      0.518875000000     0.120350000000     0.757000000000     0.51518    
C8       C      0.521225000000     0.004650000000     0.868000000000     0.515174   
K1       K      0.593750000000     0.062500000000     0.812500000000     0.912191   
K2       K      0.656250000000     0.187500000000     0.937500000000     0.912193   
O1       O      0.543900000000     0.139675000000     0.989225000000    -0.616798   
O2       O      0.556325000000     0.214825000000     0.969675000000    -0.62851    
O3       O      0.547800000000     0.235325000000     0.885775000000    -0.616803   
O4       O      0.706100000000     0.110325000000     0.760775000000    -0.616798   
O5       O      0.615825000000     0.160175000000     0.905325000000    -0.628515   
O6       O      0.533125000000     0.010775000000     0.764675000000    -0.616795   
O7       O      0.521150000000     0.094675000000     0.785175000000    -0.628519   
O8       O      0.566425000000     0.135775000000     0.889675000000    -0.616811   
O9       O      0.683575000000     0.114225000000     0.860325000000    -0.616813   
O10      O      0.716875000000     0.239225000000     0.985325000000    -0.616794   
O11      O      0.728850000000     0.155325000000     0.964825000000    -0.628519   
O12      O      0.702200000000     0.014675000000     0.864225000000    -0.616804   
O13      O      0.693675000000     0.035175000000     0.780325000000    -0.628509   
O14      O      0.526000000000     0.030325000000     0.839825000000    -0.628511   
O15      O      0.634175000000     0.089825000000     0.844675000000    -0.628514   
O16      O      0.724000000000     0.219675000000     0.910175000000    -0.628511   
Tb1      Tb     0.531250000000     0.187500000000     0.937500000000     2.00837    
Tb2      Tb     0.718750000000     0.062500000000     0.812500000000     2.00837    
C1       C      0.639225000000     0.382000000000     0.129650000000     0.515183   
C2       C      0.610775000000     0.368000000000     0.120350000000     0.515181   
C3       C      0.724125000000     0.257000000000     0.004650000000     0.515165   
C4       C      0.731125000000     0.379650000000     0.243000000000     0.51518    
C5       C      0.728775000000     0.495350000000     0.132000000000     0.515175   
C6       C      0.525875000000     0.493000000000     0.245350000000     0.515167   
C7       C      0.518875000000     0.370350000000     0.007000000000     0.51518    
C8       C      0.521225000000     0.254650000000     0.118000000000     0.515174   
K1       K      0.593750000000     0.312500000000     0.062500000000     0.912191   
K2       K      0.656250000000     0.437500000000     0.187500000000     0.912193   
O1       O      0.543900000000     0.389675000000     0.239225000000    -0.616798   
O2       O      0.556325000000     0.464825000000     0.219675000000    -0.62851    
O3       O      0.547800000000     0.485325000000     0.135775000000    -0.616803   
O4       O      0.706100000000     0.360325000000     0.010775000000    -0.616798   
O5       O      0.615825000000     0.410175000000     0.155325000000    -0.628515   
O6       O      0.533125000000     0.260775000000     0.014675000000    -0.616795   
O7       O      0.521150000000     0.344675000000     0.035175000000    -0.628519   
O8       O      0.566425000000     0.385775000000     0.139675000000    -0.616811   
O9       O      0.683575000000     0.364225000000     0.110325000000    -0.616813   
O10      O      0.716875000000     0.489225000000     0.235325000000    -0.616794   
O11      O      0.728850000000     0.405325000000     0.214825000000    -0.628519   
O12      O      0.702200000000     0.264675000000     0.114225000000    -0.616804   
O13      O      0.693675000000     0.285175000000     0.030325000000    -0.628509   
O14      O      0.526000000000     0.280325000000     0.089825000000    -0.628511   
O15      O      0.634175000000     0.339825000000     0.094675000000    -0.628514   
O16      O      0.724000000000     0.469675000000     0.160175000000    -0.628511   
Tb1      Tb     0.531250000000     0.437500000000     0.187500000000     2.00837    
Tb2      Tb     0.718750000000     0.312500000000     0.062500000000     2.00837    
C1       C      0.639225000000     0.382000000000     0.379650000000     0.515183   
C2       C      0.610775000000     0.368000000000     0.370350000000     0.515181   
C3       C      0.724125000000     0.257000000000     0.254650000000     0.515165   
C4       C      0.731125000000     0.379650000000     0.493000000000     0.51518    
C5       C      0.728775000000     0.495350000000     0.382000000000     0.515175   
C6       C      0.525875000000     0.493000000000     0.495350000000     0.515167   
C7       C      0.518875000000     0.370350000000     0.257000000000     0.51518    
C8       C      0.521225000000     0.254650000000     0.368000000000     0.515174   
K1       K      0.593750000000     0.312500000000     0.312500000000     0.912191   
K2       K      0.656250000000     0.437500000000     0.437500000000     0.912193   
O1       O      0.543900000000     0.389675000000     0.489225000000    -0.616798   
O2       O      0.556325000000     0.464825000000     0.469675000000    -0.62851    
O3       O      0.547800000000     0.485325000000     0.385775000000    -0.616803   
O4       O      0.706100000000     0.360325000000     0.260775000000    -0.616798   
O5       O      0.615825000000     0.410175000000     0.405325000000    -0.628515   
O6       O      0.533125000000     0.260775000000     0.264675000000    -0.616795   
O7       O      0.521150000000     0.344675000000     0.285175000000    -0.628519   
O8       O      0.566425000000     0.385775000000     0.389675000000    -0.616811   
O9       O      0.683575000000     0.364225000000     0.360325000000    -0.616813   
O10      O      0.716875000000     0.489225000000     0.485325000000    -0.616794   
O11      O      0.728850000000     0.405325000000     0.464825000000    -0.628519   
O12      O      0.702200000000     0.264675000000     0.364225000000    -0.616804   
O13      O      0.693675000000     0.285175000000     0.280325000000    -0.628509   
O14      O      0.526000000000     0.280325000000     0.339825000000    -0.628511   
O15      O      0.634175000000     0.339825000000     0.344675000000    -0.628514   
O16      O      0.724000000000     0.469675000000     0.410175000000    -0.628511   
Tb1      Tb     0.531250000000     0.437500000000     0.437500000000     2.00837    
Tb2      Tb     0.718750000000     0.312500000000     0.312500000000     2.00837    
C1       C      0.639225000000     0.382000000000     0.629650000000     0.515183   
C2       C      0.610775000000     0.368000000000     0.620350000000     0.515181   
C3       C      0.724125000000     0.257000000000     0.504650000000     0.515165   
C4       C      0.731125000000     0.379650000000     0.743000000000     0.51518    
C5       C      0.728775000000     0.495350000000     0.632000000000     0.515175   
C6       C      0.525875000000     0.493000000000     0.745350000000     0.515167   
C7       C      0.518875000000     0.370350000000     0.507000000000     0.51518    
C8       C      0.521225000000     0.254650000000     0.618000000000     0.515174   
K1       K      0.593750000000     0.312500000000     0.562500000000     0.912191   
K2       K      0.656250000000     0.437500000000     0.687500000000     0.912193   
O1       O      0.543900000000     0.389675000000     0.739225000000    -0.616798   
O2       O      0.556325000000     0.464825000000     0.719675000000    -0.62851    
O3       O      0.547800000000     0.485325000000     0.635775000000    -0.616803   
O4       O      0.706100000000     0.360325000000     0.510775000000    -0.616798   
O5       O      0.615825000000     0.410175000000     0.655325000000    -0.628515   
O6       O      0.533125000000     0.260775000000     0.514675000000    -0.616795   
O7       O      0.521150000000     0.344675000000     0.535175000000    -0.628519   
O8       O      0.566425000000     0.385775000000     0.639675000000    -0.616811   
O9       O      0.683575000000     0.364225000000     0.610325000000    -0.616813   
O10      O      0.716875000000     0.489225000000     0.735325000000    -0.616794   
O11      O      0.728850000000     0.405325000000     0.714825000000    -0.628519   
O12      O      0.702200000000     0.264675000000     0.614225000000    -0.616804   
O13      O      0.693675000000     0.285175000000     0.530325000000    -0.628509   
O14      O      0.526000000000     0.280325000000     0.589825000000    -0.628511   
O15      O      0.634175000000     0.339825000000     0.594675000000    -0.628514   
O16      O      0.724000000000     0.469675000000     0.660175000000    -0.628511   
Tb1      Tb     0.531250000000     0.437500000000     0.687500000000     2.00837    
Tb2      Tb     0.718750000000     0.312500000000     0.562500000000     2.00837    
C1       C      0.639225000000     0.382000000000     0.879650000000     0.515183   
C2       C      0.610775000000     0.368000000000     0.870350000000     0.515181   
C3       C      0.724125000000     0.257000000000     0.754650000000     0.515165   
C4       C      0.731125000000     0.379650000000     0.993000000000     0.51518    
C5       C      0.728775000000     0.495350000000     0.882000000000     0.515175   
C6       C      0.525875000000     0.493000000000     0.995350000000     0.515167   
C7       C      0.518875000000     0.370350000000     0.757000000000     0.51518    
C8       C      0.521225000000     0.254650000000     0.868000000000     0.515174   
K1       K      0.593750000000     0.312500000000     0.812500000000     0.912191   
K2       K      0.656250000000     0.437500000000     0.937500000000     0.912193   
O1       O      0.543900000000     0.389675000000     0.989225000000    -0.616798   
O2       O      0.556325000000     0.464825000000     0.969675000000    -0.62851    
O3       O      0.547800000000     0.485325000000     0.885775000000    -0.616803   
O4       O      0.706100000000     0.360325000000     0.760775000000    -0.616798   
O5       O      0.615825000000     0.410175000000     0.905325000000    -0.628515   
O6       O      0.533125000000     0.260775000000     0.764675000000    -0.616795   
O7       O      0.521150000000     0.344675000000     0.785175000000    -0.628519   
O8       O      0.566425000000     0.385775000000     0.889675000000    -0.616811   
O9       O      0.683575000000     0.364225000000     0.860325000000    -0.616813   
O10      O      0.716875000000     0.489225000000     0.985325000000    -0.616794   
O11      O      0.728850000000     0.405325000000     0.964825000000    -0.628519   
O12      O      0.702200000000     0.264675000000     0.864225000000    -0.616804   
O13      O      0.693675000000     0.285175000000     0.780325000000    -0.628509   
O14      O      0.526000000000     0.280325000000     0.839825000000    -0.628511   
O15      O      0.634175000000     0.339825000000     0.844675000000    -0.628514   
O16      O      0.724000000000     0.469675000000     0.910175000000    -0.628511   
Tb1      Tb     0.531250000000     0.437500000000     0.937500000000     2.00837    
Tb2      Tb     0.718750000000     0.312500000000     0.812500000000     2.00837    
C1       C      0.639225000000     0.632000000000     0.129650000000     0.515183   
C2       C      0.610775000000     0.618000000000     0.120350000000     0.515181   
C3       C      0.724125000000     0.507000000000     0.004650000000     0.515165   
C4       C      0.731125000000     0.629650000000     0.243000000000     0.51518    
C5       C      0.728775000000     0.745350000000     0.132000000000     0.515175   
C6       C      0.525875000000     0.743000000000     0.245350000000     0.515167   
C7       C      0.518875000000     0.620350000000     0.007000000000     0.51518    
C8       C      0.521225000000     0.504650000000     0.118000000000     0.515174   
K1       K      0.593750000000     0.562500000000     0.062500000000     0.912191   
K2       K      0.656250000000     0.687500000000     0.187500000000     0.912193   
O1       O      0.543900000000     0.639675000000     0.239225000000    -0.616798   
O2       O      0.556325000000     0.714825000000     0.219675000000    -0.62851    
O3       O      0.547800000000     0.735325000000     0.135775000000    -0.616803   
O4       O      0.706100000000     0.610325000000     0.010775000000    -0.616798   
O5       O      0.615825000000     0.660175000000     0.155325000000    -0.628515   
O6       O      0.533125000000     0.510775000000     0.014675000000    -0.616795   
O7       O      0.521150000000     0.594675000000     0.035175000000    -0.628519   
O8       O      0.566425000000     0.635775000000     0.139675000000    -0.616811   
O9       O      0.683575000000     0.614225000000     0.110325000000    -0.616813   
O10      O      0.716875000000     0.739225000000     0.235325000000    -0.616794   
O11      O      0.728850000000     0.655325000000     0.214825000000    -0.628519   
O12      O      0.702200000000     0.514675000000     0.114225000000    -0.616804   
O13      O      0.693675000000     0.535175000000     0.030325000000    -0.628509   
O14      O      0.526000000000     0.530325000000     0.089825000000    -0.628511   
O15      O      0.634175000000     0.589825000000     0.094675000000    -0.628514   
O16      O      0.724000000000     0.719675000000     0.160175000000    -0.628511   
Tb1      Tb     0.531250000000     0.687500000000     0.187500000000     2.00837    
Tb2      Tb     0.718750000000     0.562500000000     0.062500000000     2.00837    
C1       C      0.639225000000     0.632000000000     0.379650000000     0.515183   
C2       C      0.610775000000     0.618000000000     0.370350000000     0.515181   
C3       C      0.724125000000     0.507000000000     0.254650000000     0.515165   
C4       C      0.731125000000     0.629650000000     0.493000000000     0.51518    
C5       C      0.728775000000     0.745350000000     0.382000000000     0.515175   
C6       C      0.525875000000     0.743000000000     0.495350000000     0.515167   
C7       C      0.518875000000     0.620350000000     0.257000000000     0.51518    
C8       C      0.521225000000     0.504650000000     0.368000000000     0.515174   
K1       K      0.593750000000     0.562500000000     0.312500000000     0.912191   
K2       K      0.656250000000     0.687500000000     0.437500000000     0.912193   
O1       O      0.543900000000     0.639675000000     0.489225000000    -0.616798   
O2       O      0.556325000000     0.714825000000     0.469675000000    -0.62851    
O3       O      0.547800000000     0.735325000000     0.385775000000    -0.616803   
O4       O      0.706100000000     0.610325000000     0.260775000000    -0.616798   
O5       O      0.615825000000     0.660175000000     0.405325000000    -0.628515   
O6       O      0.533125000000     0.510775000000     0.264675000000    -0.616795   
O7       O      0.521150000000     0.594675000000     0.285175000000    -0.628519   
O8       O      0.566425000000     0.635775000000     0.389675000000    -0.616811   
O9       O      0.683575000000     0.614225000000     0.360325000000    -0.616813   
O10      O      0.716875000000     0.739225000000     0.485325000000    -0.616794   
O11      O      0.728850000000     0.655325000000     0.464825000000    -0.628519   
O12      O      0.702200000000     0.514675000000     0.364225000000    -0.616804   
O13      O      0.693675000000     0.535175000000     0.280325000000    -0.628509   
O14      O      0.526000000000     0.530325000000     0.339825000000    -0.628511   
O15      O      0.634175000000     0.589825000000     0.344675000000    -0.628514   
O16      O      0.724000000000     0.719675000000     0.410175000000    -0.628511   
Tb1      Tb     0.531250000000     0.687500000000     0.437500000000     2.00837    
Tb2      Tb     0.718750000000     0.562500000000     0.312500000000     2.00837    
C1       C      0.639225000000     0.632000000000     0.629650000000     0.515183   
C2       C      0.610775000000     0.618000000000     0.620350000000     0.515181   
C3       C      0.724125000000     0.507000000000     0.504650000000     0.515165   
C4       C      0.731125000000     0.629650000000     0.743000000000     0.51518    
C5       C      0.728775000000     0.745350000000     0.632000000000     0.515175   
C6       C      0.525875000000     0.743000000000     0.745350000000     0.515167   
C7       C      0.518875000000     0.620350000000     0.507000000000     0.51518    
C8       C      0.521225000000     0.504650000000     0.618000000000     0.515174   
K1       K      0.593750000000     0.562500000000     0.562500000000     0.912191   
K2       K      0.656250000000     0.687500000000     0.687500000000     0.912193   
O1       O      0.543900000000     0.639675000000     0.739225000000    -0.616798   
O2       O      0.556325000000     0.714825000000     0.719675000000    -0.62851    
O3       O      0.547800000000     0.735325000000     0.635775000000    -0.616803   
O4       O      0.706100000000     0.610325000000     0.510775000000    -0.616798   
O5       O      0.615825000000     0.660175000000     0.655325000000    -0.628515   
O6       O      0.533125000000     0.510775000000     0.514675000000    -0.616795   
O7       O      0.521150000000     0.594675000000     0.535175000000    -0.628519   
O8       O      0.566425000000     0.635775000000     0.639675000000    -0.616811   
O9       O      0.683575000000     0.614225000000     0.610325000000    -0.616813   
O10      O      0.716875000000     0.739225000000     0.735325000000    -0.616794   
O11      O      0.728850000000     0.655325000000     0.714825000000    -0.628519   
O12      O      0.702200000000     0.514675000000     0.614225000000    -0.616804   
O13      O      0.693675000000     0.535175000000     0.530325000000    -0.628509   
O14      O      0.526000000000     0.530325000000     0.589825000000    -0.628511   
O15      O      0.634175000000     0.589825000000     0.594675000000    -0.628514   
O16      O      0.724000000000     0.719675000000     0.660175000000    -0.628511   
Tb1      Tb     0.531250000000     0.687500000000     0.687500000000     2.00837    
Tb2      Tb     0.718750000000     0.562500000000     0.562500000000     2.00837    
C1       C      0.639225000000     0.632000000000     0.879650000000     0.515183   
C2       C      0.610775000000     0.618000000000     0.870350000000     0.515181   
C3       C      0.724125000000     0.507000000000     0.754650000000     0.515165   
C4       C      0.731125000000     0.629650000000     0.993000000000     0.51518    
C5       C      0.728775000000     0.745350000000     0.882000000000     0.515175   
C6       C      0.525875000000     0.743000000000     0.995350000000     0.515167   
C7       C      0.518875000000     0.620350000000     0.757000000000     0.51518    
C8       C      0.521225000000     0.504650000000     0.868000000000     0.515174   
K1       K      0.593750000000     0.562500000000     0.812500000000     0.912191   
K2       K      0.656250000000     0.687500000000     0.937500000000     0.912193   
O1       O      0.543900000000     0.639675000000     0.989225000000    -0.616798   
O2       O      0.556325000000     0.714825000000     0.969675000000    -0.62851    
O3       O      0.547800000000     0.735325000000     0.885775000000    -0.616803   
O4       O      0.706100000000     0.610325000000     0.760775000000    -0.616798   
O5       O      0.615825000000     0.660175000000     0.905325000000    -0.628515   
O6       O      0.533125000000     0.510775000000     0.764675000000    -0.616795   
O7       O      0.521150000000     0.594675000000     0.785175000000    -0.628519   
O8       O      0.566425000000     0.635775000000     0.889675000000    -0.616811   
O9       O      0.683575000000     0.614225000000     0.860325000000    -0.616813   
O10      O      0.716875000000     0.739225000000     0.985325000000    -0.616794   
O11      O      0.728850000000     0.655325000000     0.964825000000    -0.628519   
O12      O      0.702200000000     0.514675000000     0.864225000000    -0.616804   
O13      O      0.693675000000     0.535175000000     0.780325000000    -0.628509   
O14      O      0.526000000000     0.530325000000     0.839825000000    -0.628511   
O15      O      0.634175000000     0.589825000000     0.844675000000    -0.628514   
O16      O      0.724000000000     0.719675000000     0.910175000000    -0.628511   
Tb1      Tb     0.531250000000     0.687500000000     0.937500000000     2.00837    
Tb2      Tb     0.718750000000     0.562500000000     0.812500000000     2.00837    
C1       C      0.639225000000     0.882000000000     0.129650000000     0.515183   
C2       C      0.610775000000     0.868000000000     0.120350000000     0.515181   
C3       C      0.724125000000     0.757000000000     0.004650000000     0.515165   
C4       C      0.731125000000     0.879650000000     0.243000000000     0.51518    
C5       C      0.728775000000     0.995350000000     0.132000000000     0.515175   
C6       C      0.525875000000     0.993000000000     0.245350000000     0.515167   
C7       C      0.518875000000     0.870350000000     0.007000000000     0.51518    
C8       C      0.521225000000     0.754650000000     0.118000000000     0.515174   
K1       K      0.593750000000     0.812500000000     0.062500000000     0.912191   
K2       K      0.656250000000     0.937500000000     0.187500000000     0.912193   
O1       O      0.543900000000     0.889675000000     0.239225000000    -0.616798   
O2       O      0.556325000000     0.964825000000     0.219675000000    -0.62851    
O3       O      0.547800000000     0.985325000000     0.135775000000    -0.616803   
O4       O      0.706100000000     0.860325000000     0.010775000000    -0.616798   
O5       O      0.615825000000     0.910175000000     0.155325000000    -0.628515   
O6       O      0.533125000000     0.760775000000     0.014675000000    -0.616795   
O7       O      0.521150000000     0.844675000000     0.035175000000    -0.628519   
O8       O      0.566425000000     0.885775000000     0.139675000000    -0.616811   
O9       O      0.683575000000     0.864225000000     0.110325000000    -0.616813   
O10      O      0.716875000000     0.989225000000     0.235325000000    -0.616794   
O11      O      0.728850000000     0.905325000000     0.214825000000    -0.628519   
O12      O      0.702200000000     0.764675000000     0.114225000000    -0.616804   
O13      O      0.693675000000     0.785175000000     0.030325000000    -0.628509   
O14      O      0.526000000000     0.780325000000     0.089825000000    -0.628511   
O15      O      0.634175000000     0.839825000000     0.094675000000    -0.628514   
O16      O      0.724000000000     0.969675000000     0.160175000000    -0.628511   
Tb1      Tb     0.531250000000     0.937500000000     0.187500000000     2.00837    
Tb2      Tb     0.718750000000     0.812500000000     0.062500000000     2.00837    
C1       C      0.639225000000     0.882000000000     0.379650000000     0.515183   
C2       C      0.610775000000     0.868000000000     0.370350000000     0.515181   
C3       C      0.724125000000     0.757000000000     0.254650000000     0.515165   
C4       C      0.731125000000     0.879650000000     0.493000000000     0.51518    
C5       C      0.728775000000     0.995350000000     0.382000000000     0.515175   
C6       C      0.525875000000     0.993000000000     0.495350000000     0.515167   
C7       C      0.518875000000     0.870350000000     0.257000000000     0.51518    
C8       C      0.521225000000     0.754650000000     0.368000000000     0.515174   
K1       K      0.593750000000     0.812500000000     0.312500000000     0.912191   
K2       K      0.656250000000     0.937500000000     0.437500000000     0.912193   
O1       O      0.543900000000     0.889675000000     0.489225000000    -0.616798   
O2       O      0.556325000000     0.964825000000     0.469675000000    -0.62851    
O3       O      0.547800000000     0.985325000000     0.385775000000    -0.616803   
O4       O      0.706100000000     0.860325000000     0.260775000000    -0.616798   
O5       O      0.615825000000     0.910175000000     0.405325000000    -0.628515   
O6       O      0.533125000000     0.760775000000     0.264675000000    -0.616795   
O7       O      0.521150000000     0.844675000000     0.285175000000    -0.628519   
O8       O      0.566425000000     0.885775000000     0.389675000000    -0.616811   
O9       O      0.683575000000     0.864225000000     0.360325000000    -0.616813   
O10      O      0.716875000000     0.989225000000     0.485325000000    -0.616794   
O11      O      0.728850000000     0.905325000000     0.464825000000    -0.628519   
O12      O      0.702200000000     0.764675000000     0.364225000000    -0.616804   
O13      O      0.693675000000     0.785175000000     0.280325000000    -0.628509   
O14      O      0.526000000000     0.780325000000     0.339825000000    -0.628511   
O15      O      0.634175000000     0.839825000000     0.344675000000    -0.628514   
O16      O      0.724000000000     0.969675000000     0.410175000000    -0.628511   
Tb1      Tb     0.531250000000     0.937500000000     0.437500000000     2.00837    
Tb2      Tb     0.718750000000     0.812500000000     0.312500000000     2.00837    
C1       C      0.639225000000     0.882000000000     0.629650000000     0.515183   
C2       C      0.610775000000     0.868000000000     0.620350000000     0.515181   
C3       C      0.724125000000     0.757000000000     0.504650000000     0.515165   
C4       C      0.731125000000     0.879650000000     0.743000000000     0.51518    
C5       C      0.728775000000     0.995350000000     0.632000000000     0.515175   
C6       C      0.525875000000     0.993000000000     0.745350000000     0.515167   
C7       C      0.518875000000     0.870350000000     0.507000000000     0.51518    
C8       C      0.521225000000     0.754650000000     0.618000000000     0.515174   
K1       K      0.593750000000     0.812500000000     0.562500000000     0.912191   
K2       K      0.656250000000     0.937500000000     0.687500000000     0.912193   
O1       O      0.543900000000     0.889675000000     0.739225000000    -0.616798   
O2       O      0.556325000000     0.964825000000     0.719675000000    -0.62851    
O3       O      0.547800000000     0.985325000000     0.635775000000    -0.616803   
O4       O      0.706100000000     0.860325000000     0.510775000000    -0.616798   
O5       O      0.615825000000     0.910175000000     0.655325000000    -0.628515   
O6       O      0.533125000000     0.760775000000     0.514675000000    -0.616795   
O7       O      0.521150000000     0.844675000000     0.535175000000    -0.628519   
O8       O      0.566425000000     0.885775000000     0.639675000000    -0.616811   
O9       O      0.683575000000     0.864225000000     0.610325000000    -0.616813   
O10      O      0.716875000000     0.989225000000     0.735325000000    -0.616794   
O11      O      0.728850000000     0.905325000000     0.714825000000    -0.628519   
O12      O      0.702200000000     0.764675000000     0.614225000000    -0.616804   
O13      O      0.693675000000     0.785175000000     0.530325000000    -0.628509   
O14      O      0.526000000000     0.780325000000     0.589825000000    -0.628511   
O15      O      0.634175000000     0.839825000000     0.594675000000    -0.628514   
O16      O      0.724000000000     0.969675000000     0.660175000000    -0.628511   
Tb1      Tb     0.531250000000     0.937500000000     0.687500000000     2.00837    
Tb2      Tb     0.718750000000     0.812500000000     0.562500000000     2.00837    
C1       C      0.639225000000     0.882000000000     0.879650000000     0.515183   
C2       C      0.610775000000     0.868000000000     0.870350000000     0.515181   
C3       C      0.724125000000     0.757000000000     0.754650000000     0.515165   
C4       C      0.731125000000     0.879650000000     0.993000000000     0.51518    
C5       C      0.728775000000     0.995350000000     0.882000000000     0.515175   
C6       C      0.525875000000     0.993000000000     0.995350000000     0.515167   
C7       C      0.518875000000     0.870350000000     0.757000000000     0.51518    
C8       C      0.521225000000     0.754650000000     0.868000000000     0.515174   
K1       K      0.593750000000     0.812500000000     0.812500000000     0.912191   
K2       K      0.656250000000     0.937500000000     0.937500000000     0.912193   
O1       O      0.543900000000     0.889675000000     0.989225000000    -0.616798   
O2       O      0.556325000000     0.964825000000     0.969675000000    -0.62851    
O3       O      0.547800000000     0.985325000000     0.885775000000    -0.616803   
O4       O      0.706100000000     0.860325000000     0.760775000000    -0.616798   
O5       O      0.615825000000     0.910175000000     0.905325000000    -0.628515   
O6       O      0.533125000000     0.760775000000     0.764675000000    -0.616795   
O7       O      0.521150000000     0.844675000000     0.785175000000    -0.628519   
O8       O      0.566425000000     0.885775000000     0.889675000000    -0.616811   
O9       O      0.683575000000     0.864225000000     0.860325000000    -0.616813   
O10      O      0.716875000000     0.989225000000     0.985325000000    -0.616794   
O11      O      0.728850000000     0.905325000000     0.964825000000    -0.628519   
O12      O      0.702200000000     0.764675000000     0.864225000000    -0.616804   
O13      O      0.693675000000     0.785175000000     0.780325000000    -0.628509   
O14      O      0.526000000000     0.780325000000     0.839825000000    -0.628511   
O15      O      0.634175000000     0.839825000000     0.844675000000    -0.628514   
O16      O      0.724000000000     0.969675000000     0.910175000000    -0.628511   
Tb1      Tb     0.531250000000     0.937500000000     0.937500000000     2.00837    
Tb2      Tb     0.718750000000     0.812500000000     0.812500000000     2.00837    
C1       C      0.889225000000     0.132000000000     0.129650000000     0.515183   
C2       C      0.860775000000     0.118000000000     0.120350000000     0.515181   
C3       C      0.974125000000     0.007000000000     0.004650000000     0.515165   
C4       C      0.981125000000     0.129650000000     0.243000000000     0.51518    
C5       C      0.978775000000     0.245350000000     0.132000000000     0.515175   
C6       C      0.775875000000     0.243000000000     0.245350000000     0.515167   
C7       C      0.768875000000     0.120350000000     0.007000000000     0.51518    
C8       C      0.771225000000     0.004650000000     0.118000000000     0.515174   
K1       K      0.843750000000     0.062500000000     0.062500000000     0.912191   
K2       K      0.906250000000     0.187500000000     0.187500000000     0.912193   
O1       O      0.793900000000     0.139675000000     0.239225000000    -0.616798   
O2       O      0.806325000000     0.214825000000     0.219675000000    -0.62851    
O3       O      0.797800000000     0.235325000000     0.135775000000    -0.616803   
O4       O      0.956100000000     0.110325000000     0.010775000000    -0.616798   
O5       O      0.865825000000     0.160175000000     0.155325000000    -0.628515   
O6       O      0.783125000000     0.010775000000     0.014675000000    -0.616795   
O7       O      0.771150000000     0.094675000000     0.035175000000    -0.628519   
O8       O      0.816425000000     0.135775000000     0.139675000000    -0.616811   
O9       O      0.933575000000     0.114225000000     0.110325000000    -0.616813   
O10      O      0.966875000000     0.239225000000     0.235325000000    -0.616794   
O11      O      0.978850000000     0.155325000000     0.214825000000    -0.628519   
O12      O      0.952200000000     0.014675000000     0.114225000000    -0.616804   
O13      O      0.943675000000     0.035175000000     0.030325000000    -0.628509   
O14      O      0.776000000000     0.030325000000     0.089825000000    -0.628511   
O15      O      0.884175000000     0.089825000000     0.094675000000    -0.628514   
O16      O      0.974000000000     0.219675000000     0.160175000000    -0.628511   
Tb1      Tb     0.781250000000     0.187500000000     0.187500000000     2.00837    
Tb2      Tb     0.968750000000     0.062500000000     0.062500000000     2.00837    
C1       C      0.889225000000     0.132000000000     0.379650000000     0.515183   
C2       C      0.860775000000     0.118000000000     0.370350000000     0.515181   
C3       C      0.974125000000     0.007000000000     0.254650000000     0.515165   
C4       C      0.981125000000     0.129650000000     0.493000000000     0.51518    
C5       C      0.978775000000     0.245350000000     0.382000000000     0.515175   
C6       C      0.775875000000     0.243000000000     0.495350000000     0.515167   
C7       C      0.768875000000     0.120350000000     0.257000000000     0.51518    
C8       C      0.771225000000     0.004650000000     0.368000000000     0.515174   
K1       K      0.843750000000     0.062500000000     0.312500000000     0.912191   
K2       K      0.906250000000     0.187500000000     0.437500000000     0.912193   
O1       O      0.793900000000     0.139675000000     0.489225000000    -0.616798   
O2       O      0.806325000000     0.214825000000     0.469675000000    -0.62851    
O3       O      0.797800000000     0.235325000000     0.385775000000    -0.616803   
O4       O      0.956100000000     0.110325000000     0.260775000000    -0.616798   
O5       O      0.865825000000     0.160175000000     0.405325000000    -0.628515   
O6       O      0.783125000000     0.010775000000     0.264675000000    -0.616795   
O7       O      0.771150000000     0.094675000000     0.285175000000    -0.628519   
O8       O      0.816425000000     0.135775000000     0.389675000000    -0.616811   
O9       O      0.933575000000     0.114225000000     0.360325000000    -0.616813   
O10      O      0.966875000000     0.239225000000     0.485325000000    -0.616794   
O11      O      0.978850000000     0.155325000000     0.464825000000    -0.628519   
O12      O      0.952200000000     0.014675000000     0.364225000000    -0.616804   
O13      O      0.943675000000     0.035175000000     0.280325000000    -0.628509   
O14      O      0.776000000000     0.030325000000     0.339825000000    -0.628511   
O15      O      0.884175000000     0.089825000000     0.344675000000    -0.628514   
O16      O      0.974000000000     0.219675000000     0.410175000000    -0.628511   
Tb1      Tb     0.781250000000     0.187500000000     0.437500000000     2.00837    
Tb2      Tb     0.968750000000     0.062500000000     0.312500000000     2.00837    
C1       C      0.889225000000     0.132000000000     0.629650000000     0.515183   
C2       C      0.860775000000     0.118000000000     0.620350000000     0.515181   
C3       C      0.974125000000     0.007000000000     0.504650000000     0.515165   
C4       C      0.981125000000     0.129650000000     0.743000000000     0.51518    
C5       C      0.978775000000     0.245350000000     0.632000000000     0.515175   
C6       C      0.775875000000     0.243000000000     0.745350000000     0.515167   
C7       C      0.768875000000     0.120350000000     0.507000000000     0.51518    
C8       C      0.771225000000     0.004650000000     0.618000000000     0.515174   
K1       K      0.843750000000     0.062500000000     0.562500000000     0.912191   
K2       K      0.906250000000     0.187500000000     0.687500000000     0.912193   
O1       O      0.793900000000     0.139675000000     0.739225000000    -0.616798   
O2       O      0.806325000000     0.214825000000     0.719675000000    -0.62851    
O3       O      0.797800000000     0.235325000000     0.635775000000    -0.616803   
O4       O      0.956100000000     0.110325000000     0.510775000000    -0.616798   
O5       O      0.865825000000     0.160175000000     0.655325000000    -0.628515   
O6       O      0.783125000000     0.010775000000     0.514675000000    -0.616795   
O7       O      0.771150000000     0.094675000000     0.535175000000    -0.628519   
O8       O      0.816425000000     0.135775000000     0.639675000000    -0.616811   
O9       O      0.933575000000     0.114225000000     0.610325000000    -0.616813   
O10      O      0.966875000000     0.239225000000     0.735325000000    -0.616794   
O11      O      0.978850000000     0.155325000000     0.714825000000    -0.628519   
O12      O      0.952200000000     0.014675000000     0.614225000000    -0.616804   
O13      O      0.943675000000     0.035175000000     0.530325000000    -0.628509   
O14      O      0.776000000000     0.030325000000     0.589825000000    -0.628511   
O15      O      0.884175000000     0.089825000000     0.594675000000    -0.628514   
O16      O      0.974000000000     0.219675000000     0.660175000000    -0.628511   
Tb1      Tb     0.781250000000     0.187500000000     0.687500000000     2.00837    
Tb2      Tb     0.968750000000     0.062500000000     0.562500000000     2.00837    
C1       C      0.889225000000     0.132000000000     0.879650000000     0.515183   
C2       C      0.860775000000     0.118000000000     0.870350000000     0.515181   
C3       C      0.974125000000     0.007000000000     0.754650000000     0.515165   
C4       C      0.981125000000     0.129650000000     0.993000000000     0.51518    
C5       C      0.978775000000     0.245350000000     0.882000000000     0.515175   
C6       C      0.775875000000     0.243000000000     0.995350000000     0.515167   
C7       C      0.768875000000     0.120350000000     0.757000000000     0.51518    
C8       C      0.771225000000     0.004650000000     0.868000000000     0.515174   
K1       K      0.843750000000     0.062500000000     0.812500000000     0.912191   
K2       K      0.906250000000     0.187500000000     0.937500000000     0.912193   
O1       O      0.793900000000     0.139675000000     0.989225000000    -0.616798   
O2       O      0.806325000000     0.214825000000     0.969675000000    -0.62851    
O3       O      0.797800000000     0.235325000000     0.885775000000    -0.616803   
O4       O      0.956100000000     0.110325000000     0.760775000000    -0.616798   
O5       O      0.865825000000     0.160175000000     0.905325000000    -0.628515   
O6       O      0.783125000000     0.010775000000     0.764675000000    -0.616795   
O7       O      0.771150000000     0.094675000000     0.785175000000    -0.628519   
O8       O      0.816425000000     0.135775000000     0.889675000000    -0.616811   
O9       O      0.933575000000     0.114225000000     0.860325000000    -0.616813   
O10      O      0.966875000000     0.239225000000     0.985325000000    -0.616794   
O11      O      0.978850000000     0.155325000000     0.964825000000    -0.628519   
O12      O      0.952200000000     0.014675000000     0.864225000000    -0.616804   
O13      O      0.943675000000     0.035175000000     0.780325000000    -0.628509   
O14      O      0.776000000000     0.030325000000     0.839825000000    -0.628511   
O15      O      0.884175000000     0.089825000000     0.844675000000    -0.628514   
O16      O      0.974000000000     0.219675000000     0.910175000000    -0.628511   
Tb1      Tb     0.781250000000     0.187500000000     0.937500000000     2.00837    
Tb2      Tb     0.968750000000     0.062500000000     0.812500000000     2.00837    
C1       C      0.889225000000     0.382000000000     0.129650000000     0.515183   
C2       C      0.860775000000     0.368000000000     0.120350000000     0.515181   
C3       C      0.974125000000     0.257000000000     0.004650000000     0.515165   
C4       C      0.981125000000     0.379650000000     0.243000000000     0.51518    
C5       C      0.978775000000     0.495350000000     0.132000000000     0.515175   
C6       C      0.775875000000     0.493000000000     0.245350000000     0.515167   
C7       C      0.768875000000     0.370350000000     0.007000000000     0.51518    
C8       C      0.771225000000     0.254650000000     0.118000000000     0.515174   
K1       K      0.843750000000     0.312500000000     0.062500000000     0.912191   
K2       K      0.906250000000     0.437500000000     0.187500000000     0.912193   
O1       O      0.793900000000     0.389675000000     0.239225000000    -0.616798   
O2       O      0.806325000000     0.464825000000     0.219675000000    -0.62851    
O3       O      0.797800000000     0.485325000000     0.135775000000    -0.616803   
O4       O      0.956100000000     0.360325000000     0.010775000000    -0.616798   
O5       O      0.865825000000     0.410175000000     0.155325000000    -0.628515   
O6       O      0.783125000000     0.260775000000     0.014675000000    -0.616795   
O7       O      0.771150000000     0.344675000000     0.035175000000    -0.628519   
O8       O      0.816425000000     0.385775000000     0.139675000000    -0.616811   
O9       O      0.933575000000     0.364225000000     0.110325000000    -0.616813   
O10      O      0.966875000000     0.489225000000     0.235325000000    -0.616794   
O11      O      0.978850000000     0.405325000000     0.214825000000    -0.628519   
O12      O      0.952200000000     0.264675000000     0.114225000000    -0.616804   
O13      O      0.943675000000     0.285175000000     0.030325000000    -0.628509   
O14      O      0.776000000000     0.280325000000     0.089825000000    -0.628511   
O15      O      0.884175000000     0.339825000000     0.094675000000    -0.628514   
O16      O      0.974000000000     0.469675000000     0.160175000000    -0.628511   
Tb1      Tb     0.781250000000     0.437500000000     0.187500000000     2.00837    
Tb2      Tb     0.968750000000     0.312500000000     0.062500000000     2.00837    
C1       C      0.889225000000     0.382000000000     0.379650000000     0.515183   
C2       C      0.860775000000     0.368000000000     0.370350000000     0.515181   
C3       C      0.974125000000     0.257000000000     0.254650000000     0.515165   
C4       C      0.981125000000     0.379650000000     0.493000000000     0.51518    
C5       C      0.978775000000     0.495350000000     0.382000000000     0.515175   
C6       C      0.775875000000     0.493000000000     0.495350000000     0.515167   
C7       C      0.768875000000     0.370350000000     0.257000000000     0.51518    
C8       C      0.771225000000     0.254650000000     0.368000000000     0.515174   
K1       K      0.843750000000     0.312500000000     0.312500000000     0.912191   
K2       K      0.906250000000     0.437500000000     0.437500000000     0.912193   
O1       O      0.793900000000     0.389675000000     0.489225000000    -0.616798   
O2       O      0.806325000000     0.464825000000     0.469675000000    -0.62851    
O3       O      0.797800000000     0.485325000000     0.385775000000    -0.616803   
O4       O      0.956100000000     0.360325000000     0.260775000000    -0.616798   
O5       O      0.865825000000     0.410175000000     0.405325000000    -0.628515   
O6       O      0.783125000000     0.260775000000     0.264675000000    -0.616795   
O7       O      0.771150000000     0.344675000000     0.285175000000    -0.628519   
O8       O      0.816425000000     0.385775000000     0.389675000000    -0.616811   
O9       O      0.933575000000     0.364225000000     0.360325000000    -0.616813   
O10      O      0.966875000000     0.489225000000     0.485325000000    -0.616794   
O11      O      0.978850000000     0.405325000000     0.464825000000    -0.628519   
O12      O      0.952200000000     0.264675000000     0.364225000000    -0.616804   
O13      O      0.943675000000     0.285175000000     0.280325000000    -0.628509   
O14      O      0.776000000000     0.280325000000     0.339825000000    -0.628511   
O15      O      0.884175000000     0.339825000000     0.344675000000    -0.628514   
O16      O      0.974000000000     0.469675000000     0.410175000000    -0.628511   
Tb1      Tb     0.781250000000     0.437500000000     0.437500000000     2.00837    
Tb2      Tb     0.968750000000     0.312500000000     0.312500000000     2.00837    
C1       C      0.889225000000     0.382000000000     0.629650000000     0.515183   
C2       C      0.860775000000     0.368000000000     0.620350000000     0.515181   
C3       C      0.974125000000     0.257000000000     0.504650000000     0.515165   
C4       C      0.981125000000     0.379650000000     0.743000000000     0.51518    
C5       C      0.978775000000     0.495350000000     0.632000000000     0.515175   
C6       C      0.775875000000     0.493000000000     0.745350000000     0.515167   
C7       C      0.768875000000     0.370350000000     0.507000000000     0.51518    
C8       C      0.771225000000     0.254650000000     0.618000000000     0.515174   
K1       K      0.843750000000     0.312500000000     0.562500000000     0.912191   
K2       K      0.906250000000     0.437500000000     0.687500000000     0.912193   
O1       O      0.793900000000     0.389675000000     0.739225000000    -0.616798   
O2       O      0.806325000000     0.464825000000     0.719675000000    -0.62851    
O3       O      0.797800000000     0.485325000000     0.635775000000    -0.616803   
O4       O      0.956100000000     0.360325000000     0.510775000000    -0.616798   
O5       O      0.865825000000     0.410175000000     0.655325000000    -0.628515   
O6       O      0.783125000000     0.260775000000     0.514675000000    -0.616795   
O7       O      0.771150000000     0.344675000000     0.535175000000    -0.628519   
O8       O      0.816425000000     0.385775000000     0.639675000000    -0.616811   
O9       O      0.933575000000     0.364225000000     0.610325000000    -0.616813   
O10      O      0.966875000000     0.489225000000     0.735325000000    -0.616794   
O11      O      0.978850000000     0.405325000000     0.714825000000    -0.628519   
O12      O      0.952200000000     0.264675000000     0.614225000000    -0.616804   
O13      O      0.943675000000     0.285175000000     0.530325000000    -0.628509   
O14      O      0.776000000000     0.280325000000     0.589825000000    -0.628511   
O15      O      0.884175000000     0.339825000000     0.594675000000    -0.628514   
O16      O      0.974000000000     0.469675000000     0.660175000000    -0.628511   
Tb1      Tb     0.781250000000     0.437500000000     0.687500000000     2.00837    
Tb2      Tb     0.968750000000     0.312500000000     0.562500000000     2.00837    
C1       C      0.889225000000     0.382000000000     0.879650000000     0.515183   
C2       C      0.860775000000     0.368000000000     0.870350000000     0.515181   
C3       C      0.974125000000     0.257000000000     0.754650000000     0.515165   
C4       C      0.981125000000     0.379650000000     0.993000000000     0.51518    
C5       C      0.978775000000     0.495350000000     0.882000000000     0.515175   
C6       C      0.775875000000     0.493000000000     0.995350000000     0.515167   
C7       C      0.768875000000     0.370350000000     0.757000000000     0.51518    
C8       C      0.771225000000     0.254650000000     0.868000000000     0.515174   
K1       K      0.843750000000     0.312500000000     0.812500000000     0.912191   
K2       K      0.906250000000     0.437500000000     0.937500000000     0.912193   
O1       O      0.793900000000     0.389675000000     0.989225000000    -0.616798   
O2       O      0.806325000000     0.464825000000     0.969675000000    -0.62851    
O3       O      0.797800000000     0.485325000000     0.885775000000    -0.616803   
O4       O      0.956100000000     0.360325000000     0.760775000000    -0.616798   
O5       O      0.865825000000     0.410175000000     0.905325000000    -0.628515   
O6       O      0.783125000000     0.260775000000     0.764675000000    -0.616795   
O7       O      0.771150000000     0.344675000000     0.785175000000    -0.628519   
O8       O      0.816425000000     0.385775000000     0.889675000000    -0.616811   
O9       O      0.933575000000     0.364225000000     0.860325000000    -0.616813   
O10      O      0.966875000000     0.489225000000     0.985325000000    -0.616794   
O11      O      0.978850000000     0.405325000000     0.964825000000    -0.628519   
O12      O      0.952200000000     0.264675000000     0.864225000000    -0.616804   
O13      O      0.943675000000     0.285175000000     0.780325000000    -0.628509   
O14      O      0.776000000000     0.280325000000     0.839825000000    -0.628511   
O15      O      0.884175000000     0.339825000000     0.844675000000    -0.628514   
O16      O      0.974000000000     0.469675000000     0.910175000000    -0.628511   
Tb1      Tb     0.781250000000     0.437500000000     0.937500000000     2.00837    
Tb2      Tb     0.968750000000     0.312500000000     0.812500000000     2.00837    
C1       C      0.889225000000     0.632000000000     0.129650000000     0.515183   
C2       C      0.860775000000     0.618000000000     0.120350000000     0.515181   
C3       C      0.974125000000     0.507000000000     0.004650000000     0.515165   
C4       C      0.981125000000     0.629650000000     0.243000000000     0.51518    
C5       C      0.978775000000     0.745350000000     0.132000000000     0.515175   
C6       C      0.775875000000     0.743000000000     0.245350000000     0.515167   
C7       C      0.768875000000     0.620350000000     0.007000000000     0.51518    
C8       C      0.771225000000     0.504650000000     0.118000000000     0.515174   
K1       K      0.843750000000     0.562500000000     0.062500000000     0.912191   
K2       K      0.906250000000     0.687500000000     0.187500000000     0.912193   
O1       O      0.793900000000     0.639675000000     0.239225000000    -0.616798   
O2       O      0.806325000000     0.714825000000     0.219675000000    -0.62851    
O3       O      0.797800000000     0.735325000000     0.135775000000    -0.616803   
O4       O      0.956100000000     0.610325000000     0.010775000000    -0.616798   
O5       O      0.865825000000     0.660175000000     0.155325000000    -0.628515   
O6       O      0.783125000000     0.510775000000     0.014675000000    -0.616795   
O7       O      0.771150000000     0.594675000000     0.035175000000    -0.628519   
O8       O      0.816425000000     0.635775000000     0.139675000000    -0.616811   
O9       O      0.933575000000     0.614225000000     0.110325000000    -0.616813   
O10      O      0.966875000000     0.739225000000     0.235325000000    -0.616794   
O11      O      0.978850000000     0.655325000000     0.214825000000    -0.628519   
O12      O      0.952200000000     0.514675000000     0.114225000000    -0.616804   
O13      O      0.943675000000     0.535175000000     0.030325000000    -0.628509   
O14      O      0.776000000000     0.530325000000     0.089825000000    -0.628511   
O15      O      0.884175000000     0.589825000000     0.094675000000    -0.628514   
O16      O      0.974000000000     0.719675000000     0.160175000000    -0.628511   
Tb1      Tb     0.781250000000     0.687500000000     0.187500000000     2.00837    
Tb2      Tb     0.968750000000     0.562500000000     0.062500000000     2.00837    
C1       C      0.889225000000     0.632000000000     0.379650000000     0.515183   
C2       C      0.860775000000     0.618000000000     0.370350000000     0.515181   
C3       C      0.974125000000     0.507000000000     0.254650000000     0.515165   
C4       C      0.981125000000     0.629650000000     0.493000000000     0.51518    
C5       C      0.978775000000     0.745350000000     0.382000000000     0.515175   
C6       C      0.775875000000     0.743000000000     0.495350000000     0.515167   
C7       C      0.768875000000     0.620350000000     0.257000000000     0.51518    
C8       C      0.771225000000     0.504650000000     0.368000000000     0.515174   
K1       K      0.843750000000     0.562500000000     0.312500000000     0.912191   
K2       K      0.906250000000     0.687500000000     0.437500000000     0.912193   
O1       O      0.793900000000     0.639675000000     0.489225000000    -0.616798   
O2       O      0.806325000000     0.714825000000     0.469675000000    -0.62851    
O3       O      0.797800000000     0.735325000000     0.385775000000    -0.616803   
O4       O      0.956100000000     0.610325000000     0.260775000000    -0.616798   
O5       O      0.865825000000     0.660175000000     0.405325000000    -0.628515   
O6       O      0.783125000000     0.510775000000     0.264675000000    -0.616795   
O7       O      0.771150000000     0.594675000000     0.285175000000    -0.628519   
O8       O      0.816425000000     0.635775000000     0.389675000000    -0.616811   
O9       O      0.933575000000     0.614225000000     0.360325000000    -0.616813   
O10      O      0.966875000000     0.739225000000     0.485325000000    -0.616794   
O11      O      0.978850000000     0.655325000000     0.464825000000    -0.628519   
O12      O      0.952200000000     0.514675000000     0.364225000000    -0.616804   
O13      O      0.943675000000     0.535175000000     0.280325000000    -0.628509   
O14      O      0.776000000000     0.530325000000     0.339825000000    -0.628511   
O15      O      0.884175000000     0.589825000000     0.344675000000    -0.628514   
O16      O      0.974000000000     0.719675000000     0.410175000000    -0.628511   
Tb1      Tb     0.781250000000     0.687500000000     0.437500000000     2.00837    
Tb2      Tb     0.968750000000     0.562500000000     0.312500000000     2.00837    
C1       C      0.889225000000     0.632000000000     0.629650000000     0.515183   
C2       C      0.860775000000     0.618000000000     0.620350000000     0.515181   
C3       C      0.974125000000     0.507000000000     0.504650000000     0.515165   
C4       C      0.981125000000     0.629650000000     0.743000000000     0.51518    
C5       C      0.978775000000     0.745350000000     0.632000000000     0.515175   
C6       C      0.775875000000     0.743000000000     0.745350000000     0.515167   
C7       C      0.768875000000     0.620350000000     0.507000000000     0.51518    
C8       C      0.771225000000     0.504650000000     0.618000000000     0.515174   
K1       K      0.843750000000     0.562500000000     0.562500000000     0.912191   
K2       K      0.906250000000     0.687500000000     0.687500000000     0.912193   
O1       O      0.793900000000     0.639675000000     0.739225000000    -0.616798   
O2       O      0.806325000000     0.714825000000     0.719675000000    -0.62851    
O3       O      0.797800000000     0.735325000000     0.635775000000    -0.616803   
O4       O      0.956100000000     0.610325000000     0.510775000000    -0.616798   
O5       O      0.865825000000     0.660175000000     0.655325000000    -0.628515   
O6       O      0.783125000000     0.510775000000     0.514675000000    -0.616795   
O7       O      0.771150000000     0.594675000000     0.535175000000    -0.628519   
O8       O      0.816425000000     0.635775000000     0.639675000000    -0.616811   
O9       O      0.933575000000     0.614225000000     0.610325000000    -0.616813   
O10      O      0.966875000000     0.739225000000     0.735325000000    -0.616794   
O11      O      0.978850000000     0.655325000000     0.714825000000    -0.628519   
O12      O      0.952200000000     0.514675000000     0.614225000000    -0.616804   
O13      O      0.943675000000     0.535175000000     0.530325000000    -0.628509   
O14      O      0.776000000000     0.530325000000     0.589825000000    -0.628511   
O15      O      0.884175000000     0.589825000000     0.594675000000    -0.628514   
O16      O      0.974000000000     0.719675000000     0.660175000000    -0.628511   
Tb1      Tb     0.781250000000     0.687500000000     0.687500000000     2.00837    
Tb2      Tb     0.968750000000     0.562500000000     0.562500000000     2.00837    
C1       C      0.889225000000     0.632000000000     0.879650000000     0.515183   
C2       C      0.860775000000     0.618000000000     0.870350000000     0.515181   
C3       C      0.974125000000     0.507000000000     0.754650000000     0.515165   
C4       C      0.981125000000     0.629650000000     0.993000000000     0.51518    
C5       C      0.978775000000     0.745350000000     0.882000000000     0.515175   
C6       C      0.775875000000     0.743000000000     0.995350000000     0.515167   
C7       C      0.768875000000     0.620350000000     0.757000000000     0.51518    
C8       C      0.771225000000     0.504650000000     0.868000000000     0.515174   
K1       K      0.843750000000     0.562500000000     0.812500000000     0.912191   
K2       K      0.906250000000     0.687500000000     0.937500000000     0.912193   
O1       O      0.793900000000     0.639675000000     0.989225000000    -0.616798   
O2       O      0.806325000000     0.714825000000     0.969675000000    -0.62851    
O3       O      0.797800000000     0.735325000000     0.885775000000    -0.616803   
O4       O      0.956100000000     0.610325000000     0.760775000000    -0.616798   
O5       O      0.865825000000     0.660175000000     0.905325000000    -0.628515   
O6       O      0.783125000000     0.510775000000     0.764675000000    -0.616795   
O7       O      0.771150000000     0.594675000000     0.785175000000    -0.628519   
O8       O      0.816425000000     0.635775000000     0.889675000000    -0.616811   
O9       O      0.933575000000     0.614225000000     0.860325000000    -0.616813   
O10      O      0.966875000000     0.739225000000     0.985325000000    -0.616794   
O11      O      0.978850000000     0.655325000000     0.964825000000    -0.628519   
O12      O      0.952200000000     0.514675000000     0.864225000000    -0.616804   
O13      O      0.943675000000     0.535175000000     0.780325000000    -0.628509   
O14      O      0.776000000000     0.530325000000     0.839825000000    -0.628511   
O15      O      0.884175000000     0.589825000000     0.844675000000    -0.628514   
O16      O      0.974000000000     0.719675000000     0.910175000000    -0.628511   
Tb1      Tb     0.781250000000     0.687500000000     0.937500000000     2.00837    
Tb2      Tb     0.968750000000     0.562500000000     0.812500000000     2.00837    
C1       C      0.889225000000     0.882000000000     0.129650000000     0.515183   
C2       C      0.860775000000     0.868000000000     0.120350000000     0.515181   
C3       C      0.974125000000     0.757000000000     0.004650000000     0.515165   
C4       C      0.981125000000     0.879650000000     0.243000000000     0.51518    
C5       C      0.978775000000     0.995350000000     0.132000000000     0.515175   
C6       C      0.775875000000     0.993000000000     0.245350000000     0.515167   
C7       C      0.768875000000     0.870350000000     0.007000000000     0.51518    
C8       C      0.771225000000     0.754650000000     0.118000000000     0.515174   
K1       K      0.843750000000     0.812500000000     0.062500000000     0.912191   
K2       K      0.906250000000     0.937500000000     0.187500000000     0.912193   
O1       O      0.793900000000     0.889675000000     0.239225000000    -0.616798   
O2       O      0.806325000000     0.964825000000     0.219675000000    -0.62851    
O3       O      0.797800000000     0.985325000000     0.135775000000    -0.616803   
O4       O      0.956100000000     0.860325000000     0.010775000000    -0.616798   
O5       O      0.865825000000     0.910175000000     0.155325000000    -0.628515   
O6       O      0.783125000000     0.760775000000     0.014675000000    -0.616795   
O7       O      0.771150000000     0.844675000000     0.035175000000    -0.628519   
O8       O      0.816425000000     0.885775000000     0.139675000000    -0.616811   
O9       O      0.933575000000     0.864225000000     0.110325000000    -0.616813   
O10      O      0.966875000000     0.989225000000     0.235325000000    -0.616794   
O11      O      0.978850000000     0.905325000000     0.214825000000    -0.628519   
O12      O      0.952200000000     0.764675000000     0.114225000000    -0.616804   
O13      O      0.943675000000     0.785175000000     0.030325000000    -0.628509   
O14      O      0.776000000000     0.780325000000     0.089825000000    -0.628511   
O15      O      0.884175000000     0.839825000000     0.094675000000    -0.628514   
O16      O      0.974000000000     0.969675000000     0.160175000000    -0.628511   
Tb1      Tb     0.781250000000     0.937500000000     0.187500000000     2.00837    
Tb2      Tb     0.968750000000     0.812500000000     0.062500000000     2.00837    
C1       C      0.889225000000     0.882000000000     0.379650000000     0.515183   
C2       C      0.860775000000     0.868000000000     0.370350000000     0.515181   
C3       C      0.974125000000     0.757000000000     0.254650000000     0.515165   
C4       C      0.981125000000     0.879650000000     0.493000000000     0.51518    
C5       C      0.978775000000     0.995350000000     0.382000000000     0.515175   
C6       C      0.775875000000     0.993000000000     0.495350000000     0.515167   
C7       C      0.768875000000     0.870350000000     0.257000000000     0.51518    
C8       C      0.771225000000     0.754650000000     0.368000000000     0.515174   
K1       K      0.843750000000     0.812500000000     0.312500000000     0.912191   
K2       K      0.906250000000     0.937500000000     0.437500000000     0.912193   
O1       O      0.793900000000     0.889675000000     0.489225000000    -0.616798   
O2       O      0.806325000000     0.964825000000     0.469675000000    -0.62851    
O3       O      0.797800000000     0.985325000000     0.385775000000    -0.616803   
O4       O      0.956100000000     0.860325000000     0.260775000000    -0.616798   
O5       O      0.865825000000     0.910175000000     0.405325000000    -0.628515   
O6       O      0.783125000000     0.760775000000     0.264675000000    -0.616795   
O7       O      0.771150000000     0.844675000000     0.285175000000    -0.628519   
O8       O      0.816425000000     0.885775000000     0.389675000000    -0.616811   
O9       O      0.933575000000     0.864225000000     0.360325000000    -0.616813   
O10      O      0.966875000000     0.989225000000     0.485325000000    -0.616794   
O11      O      0.978850000000     0.905325000000     0.464825000000    -0.628519   
O12      O      0.952200000000     0.764675000000     0.364225000000    -0.616804   
O13      O      0.943675000000     0.785175000000     0.280325000000    -0.628509   
O14      O      0.776000000000     0.780325000000     0.339825000000    -0.628511   
O15      O      0.884175000000     0.839825000000     0.344675000000    -0.628514   
O16      O      0.974000000000     0.969675000000     0.410175000000    -0.628511   
Tb1      Tb     0.781250000000     0.937500000000     0.437500000000     2.00837    
Tb2      Tb     0.968750000000     0.812500000000     0.312500000000     2.00837    
C1       C      0.889225000000     0.882000000000     0.629650000000     0.515183   
C2       C      0.860775000000     0.868000000000     0.620350000000     0.515181   
C3       C      0.974125000000     0.757000000000     0.504650000000     0.515165   
C4       C      0.981125000000     0.879650000000     0.743000000000     0.51518    
C5       C      0.978775000000     0.995350000000     0.632000000000     0.515175   
C6       C      0.775875000000     0.993000000000     0.745350000000     0.515167   
C7       C      0.768875000000     0.870350000000     0.507000000000     0.51518    
C8       C      0.771225000000     0.754650000000     0.618000000000     0.515174   
K1       K      0.843750000000     0.812500000000     0.562500000000     0.912191   
K2       K      0.906250000000     0.937500000000     0.687500000000     0.912193   
O1       O      0.793900000000     0.889675000000     0.739225000000    -0.616798   
O2       O      0.806325000000     0.964825000000     0.719675000000    -0.62851    
O3       O      0.797800000000     0.985325000000     0.635775000000    -0.616803   
O4       O      0.956100000000     0.860325000000     0.510775000000    -0.616798   
O5       O      0.865825000000     0.910175000000     0.655325000000    -0.628515   
O6       O      0.783125000000     0.760775000000     0.514675000000    -0.616795   
O7       O      0.771150000000     0.844675000000     0.535175000000    -0.628519   
O8       O      0.816425000000     0.885775000000     0.639675000000    -0.616811   
O9       O      0.933575000000     0.864225000000     0.610325000000    -0.616813   
O10      O      0.966875000000     0.989225000000     0.735325000000    -0.616794   
O11      O      0.978850000000     0.905325000000     0.714825000000    -0.628519   
O12      O      0.952200000000     0.764675000000     0.614225000000    -0.616804   
O13      O      0.943675000000     0.785175000000     0.530325000000    -0.628509   
O14      O      0.776000000000     0.780325000000     0.589825000000    -0.628511   
O15      O      0.884175000000     0.839825000000     0.594675000000    -0.628514   
O16      O      0.974000000000     0.969675000000     0.660175000000    -0.628511   
Tb1      Tb     0.781250000000     0.937500000000     0.687500000000     2.00837    
Tb2      Tb     0.968750000000     0.812500000000     0.562500000000     2.00837    
C1       C      0.889225000000     0.882000000000     0.879650000000     0.515183   
C2       C      0.860775000000     0.868000000000     0.870350000000     0.515181   
C3       C      0.974125000000     0.757000000000     0.754650000000     0.515165   
C4       C      0.981125000000     0.879650000000     0.993000000000     0.51518    
C5       C      0.978775000000     0.995350000000     0.882000000000     0.515175   
C6       C      0.775875000000     0.993000000000     0.995350000000     0.515167   
C7       C      0.768875000000     0.870350000000     0.757000000000     0.51518    
C8       C      0.771225000000     0.754650000000     0.868000000000     0.515174   
K1       K      0.843750000000     0.812500000000     0.812500000000     0.912191   
K2       K      0.906250000000     0.937500000000     0.937500000000     0.912193   
O1       O      0.793900000000     0.889675000000     0.989225000000    -0.616798   
O2       O      0.806325000000     0.964825000000     0.969675000000    -0.62851    
O3       O      0.797800000000     0.985325000000     0.885775000000    -0.616803   
O4       O      0.956100000000     0.860325000000     0.760775000000    -0.616798   
O5       O      0.865825000000     0.910175000000     0.905325000000    -0.628515   
O6       O      0.783125000000     0.760775000000     0.764675000000    -0.616795   
O7       O      0.771150000000     0.844675000000     0.785175000000    -0.628519   
O8       O      0.816425000000     0.885775000000     0.889675000000    -0.616811   
O9       O      0.933575000000     0.864225000000     0.860325000000    -0.616813   
O10      O      0.966875000000     0.989225000000     0.985325000000    -0.616794   
O11      O      0.978850000000     0.905325000000     0.964825000000    -0.628519   
O12      O      0.952200000000     0.764675000000     0.864225000000    -0.616804   
O13      O      0.943675000000     0.785175000000     0.780325000000    -0.628509   
O14      O      0.776000000000     0.780325000000     0.839825000000    -0.628511   
O15      O      0.884175000000     0.839825000000     0.844675000000    -0.628514   
O16      O      0.974000000000     0.969675000000     0.910175000000    -0.628511   
Tb1      Tb     0.781250000000     0.937500000000     0.937500000000     2.00837    
Tb2      Tb     0.968750000000     0.812500000000     0.812500000000     2.00837    


