data_UGUGUZ_clean

_audit_creation_method RASPA-1.0
_audit_creation_date 2025-9-8
_audit_author_name ''

_cell_length_a    8.954
_cell_length_b    13.64
_cell_length_c    22.026
_cell_angle_alpha 90
_cell_angle_beta  90
_cell_angle_gamma 95.57
_cell_volume      64257.4

_symmetry_cell_setting          triclinic
_symmetry_space_group_name_Hall 'P 1'
_symmetry_space_group_name_H-M  'P 1'
_symmetry_Int_Tables_number     1

_symmetry_equiv_pos_as_xyz 'x,y,z'

loop_
_atom_site_label
_atom_site_type_symbol
_atom_site_fract_x
_atom_site_fract_y
_atom_site_fract_z
_atom_site_charge
C        C      0.229625000000     0.262766666667     0.353650000000     0.3        
C        C      0.233575000000     0.231133333333     0.364150000000     0.3        
C        C      0.029975000000     0.253133333333     0.397750000000     0.3        
C        C      0.026625000000     0.284866666667     0.386550000000     0.3        
C        C      0.200425000000     0.272533333333     0.331300000000     0.3        
C        C      0.214950000000     0.198466666667     0.353250000000     0.3        
C        C      0.059125000000     0.242500000000     0.420600000000     0.3        
C        C      0.045600000000     0.317566666667     0.397250000000     0.3        
C        C      0.232075000000     0.023633333333     0.265100000000     0.3        
C        C      0.227825000000     0.017866666667     0.233400000000     0.3        
C        C      0.215950000000     0.049100000000     0.285450000000     0.3        
C        C      0.201875000000     0.034266666667     0.211150000000     0.3        
C        C      0.020375000000     0.237233333333     0.103650000000     0.3        
C        C      0.016425000000     0.268866666667     0.114150000000     0.3        
C        C      0.220025000000     0.246866666667     0.147750000000     0.3        
C        C      0.223375000000     0.215133333333     0.136550000000     0.3        
C        C      0.049575000000     0.227466666667     0.081300000000     0.3        
C        C      0.035050000000     0.301533333333     0.103250000000     0.3        
C        C      0.190875000000     0.257500000000     0.170600000000     0.3        
C        C      0.204400000000     0.182433333333     0.147250000000     0.3        
C        C      0.017925000000     0.143033333333     0.015100000000     0.3        
C        C      0.022175000000     0.148800000000     0.483400000000     0.3        
C        C      0.034050000000     0.117566666667     0.035450000000     0.3        
C        C      0.048125000000     0.132400000000     0.461150000000     0.3        
C        C      0.020375000000     0.070566666667     0.146350000000     0.3        
C        C      0.016425000000     0.102200000000     0.135850000000     0.3        
C        C      0.220025000000     0.080200000000     0.102250000000     0.3        
C        C      0.223375000000     0.048466666667     0.113450000000     0.3        
C        C      0.049575000000     0.060800000000     0.168700000000     0.3        
C        C      0.035050000000     0.134866666667     0.146750000000     0.3        
C        C      0.190875000000     0.090833333333     0.079400000000     0.3        
C        C      0.204400000000     0.015766666667     0.102750000000     0.3        
C        C      0.017925000000     0.309700000000     0.234900000000     0.3        
C        C      0.022175000000     0.315466666667     0.266600000000     0.3        
C        C      0.034050000000     0.284233333333     0.214550000000     0.3        
C        C      0.048125000000     0.299066666667     0.288850000000     0.3        
C        C      0.229625000000     0.096100000000     0.396350000000     0.3        
C        C      0.233575000000     0.064466666667     0.385850000000     0.3        
C        C      0.029975000000     0.086466666667     0.352250000000     0.3        
C        C      0.026625000000     0.118200000000     0.363450000000     0.3        
C        C      0.200425000000     0.105866666667     0.418700000000     0.3        
C        C      0.214950000000     0.031800000000     0.396750000000     0.3        
C        C      0.059125000000     0.075833333333     0.329400000000     0.3        
C        C      0.045600000000     0.150900000000     0.352750000000     0.3        
C        C      0.232075000000     0.190300000000     0.484900000000     0.3        
C        C      0.227825000000     0.184533333333     0.016600000000     0.3        
C        C      0.215950000000     0.215766666667     0.464550000000     0.3        
C        C      0.201875000000     0.200933333333     0.038850000000     0.3        
C        C      0.229625000000     0.262766666667     0.853650000000     0.3        
C        C      0.233575000000     0.231133333333     0.864150000000     0.3        
C        C      0.029975000000     0.253133333333     0.897750000000     0.3        
C        C      0.026625000000     0.284866666667     0.886550000000     0.3        
C        C      0.200425000000     0.272533333333     0.831300000000     0.3        
C        C      0.214950000000     0.198466666667     0.853250000000     0.3        
C        C      0.059125000000     0.242500000000     0.920600000000     0.3        
C        C      0.045600000000     0.317566666667     0.897250000000     0.3        
C        C      0.232075000000     0.023633333333     0.765100000000     0.3        
C        C      0.227825000000     0.017866666667     0.733400000000     0.3        
C        C      0.215950000000     0.049100000000     0.785450000000     0.3        
C        C      0.201875000000     0.034266666667     0.711150000000     0.3        
C        C      0.020375000000     0.237233333333     0.603650000000     0.3        
C        C      0.016425000000     0.268866666667     0.614150000000     0.3        
C        C      0.220025000000     0.246866666667     0.647750000000     0.3        
C        C      0.223375000000     0.215133333333     0.636550000000     0.3        
C        C      0.049575000000     0.227466666667     0.581300000000     0.3        
C        C      0.035050000000     0.301533333333     0.603250000000     0.3        
C        C      0.190875000000     0.257500000000     0.670600000000     0.3        
C        C      0.204400000000     0.182433333333     0.647250000000     0.3        
C        C      0.017925000000     0.143033333333     0.515100000000     0.3        
C        C      0.022175000000     0.148800000000     0.983400000000     0.3        
C        C      0.034050000000     0.117566666667     0.535450000000     0.3        
C        C      0.048125000000     0.132400000000     0.961150000000     0.3        
C        C      0.020375000000     0.070566666667     0.646350000000     0.3        
C        C      0.016425000000     0.102200000000     0.635850000000     0.3        
C        C      0.220025000000     0.080200000000     0.602250000000     0.3        
C        C      0.223375000000     0.048466666667     0.613450000000     0.3        
C        C      0.049575000000     0.060800000000     0.668700000000     0.3        
C        C      0.035050000000     0.134866666667     0.646750000000     0.3        
C        C      0.190875000000     0.090833333333     0.579400000000     0.3        
C        C      0.204400000000     0.015766666667     0.602750000000     0.3        
C        C      0.017925000000     0.309700000000     0.734900000000     0.3        
C        C      0.022175000000     0.315466666667     0.766600000000     0.3        
C        C      0.034050000000     0.284233333333     0.714550000000     0.3        
C        C      0.048125000000     0.299066666667     0.788850000000     0.3        
C        C      0.229625000000     0.096100000000     0.896350000000     0.3        
C        C      0.233575000000     0.064466666667     0.885850000000     0.3        
C        C      0.029975000000     0.086466666667     0.852250000000     0.3        
C        C      0.026625000000     0.118200000000     0.863450000000     0.3        
C        C      0.200425000000     0.105866666667     0.918700000000     0.3        
C        C      0.214950000000     0.031800000000     0.896750000000     0.3        
C        C      0.059125000000     0.075833333333     0.829400000000     0.3        
C        C      0.045600000000     0.150900000000     0.852750000000     0.3        
C        C      0.232075000000     0.190300000000     0.984900000000     0.3        
C        C      0.227825000000     0.184533333333     0.516600000000     0.3        
C        C      0.215950000000     0.215766666667     0.964550000000     0.3        
C        C      0.201875000000     0.200933333333     0.538850000000     0.3        
C        C      0.229625000000     0.596100000000     0.353650000000     0.3        
C        C      0.233575000000     0.564466666667     0.364150000000     0.3        
C        C      0.029975000000     0.586466666667     0.397750000000     0.3        
C        C      0.026625000000     0.618200000000     0.386550000000     0.3        
C        C      0.200425000000     0.605866666667     0.331300000000     0.3        
C        C      0.214950000000     0.531800000000     0.353250000000     0.3        
C        C      0.059125000000     0.575833333333     0.420600000000     0.3        
C        C      0.045600000000     0.650900000000     0.397250000000     0.3        
C        C      0.232075000000     0.356966666667     0.265100000000     0.3        
C        C      0.227825000000     0.351200000000     0.233400000000     0.3        
C        C      0.215950000000     0.382433333333     0.285450000000     0.3        
C        C      0.201875000000     0.367600000000     0.211150000000     0.3        
C        C      0.020375000000     0.570566666667     0.103650000000     0.3        
C        C      0.016425000000     0.602200000000     0.114150000000     0.3        
C        C      0.220025000000     0.580200000000     0.147750000000     0.3        
C        C      0.223375000000     0.548466666667     0.136550000000     0.3        
C        C      0.049575000000     0.560800000000     0.081300000000     0.3        
C        C      0.035050000000     0.634866666667     0.103250000000     0.3        
C        C      0.190875000000     0.590833333333     0.170600000000     0.3        
C        C      0.204400000000     0.515766666667     0.147250000000     0.3        
C        C      0.017925000000     0.476366666667     0.015100000000     0.3        
C        C      0.022175000000     0.482133333333     0.483400000000     0.3        
C        C      0.034050000000     0.450900000000     0.035450000000     0.3        
C        C      0.048125000000     0.465733333333     0.461150000000     0.3        
C        C      0.020375000000     0.403900000000     0.146350000000     0.3        
C        C      0.016425000000     0.435533333333     0.135850000000     0.3        
C        C      0.220025000000     0.413533333333     0.102250000000     0.3        
C        C      0.223375000000     0.381800000000     0.113450000000     0.3        
C        C      0.049575000000     0.394133333333     0.168700000000     0.3        
C        C      0.035050000000     0.468200000000     0.146750000000     0.3        
C        C      0.190875000000     0.424166666667     0.079400000000     0.3        
C        C      0.204400000000     0.349100000000     0.102750000000     0.3        
C        C      0.017925000000     0.643033333333     0.234900000000     0.3        
C        C      0.022175000000     0.648800000000     0.266600000000     0.3        
C        C      0.034050000000     0.617566666667     0.214550000000     0.3        
C        C      0.048125000000     0.632400000000     0.288850000000     0.3        
C        C      0.229625000000     0.429433333333     0.396350000000     0.3        
C        C      0.233575000000     0.397800000000     0.385850000000     0.3        
C        C      0.029975000000     0.419800000000     0.352250000000     0.3        
C        C      0.026625000000     0.451533333333     0.363450000000     0.3        
C        C      0.200425000000     0.439200000000     0.418700000000     0.3        
C        C      0.214950000000     0.365133333333     0.396750000000     0.3        
C        C      0.059125000000     0.409166666667     0.329400000000     0.3        
C        C      0.045600000000     0.484233333333     0.352750000000     0.3        
C        C      0.232075000000     0.523633333333     0.484900000000     0.3        
C        C      0.227825000000     0.517866666667     0.016600000000     0.3        
C        C      0.215950000000     0.549100000000     0.464550000000     0.3        
C        C      0.201875000000     0.534266666667     0.038850000000     0.3        
C        C      0.229625000000     0.596100000000     0.853650000000     0.3        
C        C      0.233575000000     0.564466666667     0.864150000000     0.3        
C        C      0.029975000000     0.586466666667     0.897750000000     0.3        
C        C      0.026625000000     0.618200000000     0.886550000000     0.3        
C        C      0.200425000000     0.605866666667     0.831300000000     0.3        
C        C      0.214950000000     0.531800000000     0.853250000000     0.3        
C        C      0.059125000000     0.575833333333     0.920600000000     0.3        
C        C      0.045600000000     0.650900000000     0.897250000000     0.3        
C        C      0.232075000000     0.356966666667     0.765100000000     0.3        
C        C      0.227825000000     0.351200000000     0.733400000000     0.3        
C        C      0.215950000000     0.382433333333     0.785450000000     0.3        
C        C      0.201875000000     0.367600000000     0.711150000000     0.3        
C        C      0.020375000000     0.570566666667     0.603650000000     0.3        
C        C      0.016425000000     0.602200000000     0.614150000000     0.3        
C        C      0.220025000000     0.580200000000     0.647750000000     0.3        
C        C      0.223375000000     0.548466666667     0.636550000000     0.3        
C        C      0.049575000000     0.560800000000     0.581300000000     0.3        
C        C      0.035050000000     0.634866666667     0.603250000000     0.3        
C        C      0.190875000000     0.590833333333     0.670600000000     0.3        
C        C      0.204400000000     0.515766666667     0.647250000000     0.3        
C        C      0.017925000000     0.476366666667     0.515100000000     0.3        
C        C      0.022175000000     0.482133333333     0.983400000000     0.3        
C        C      0.034050000000     0.450900000000     0.535450000000     0.3        
C        C      0.048125000000     0.465733333333     0.961150000000     0.3        
C        C      0.020375000000     0.403900000000     0.646350000000     0.3        
C        C      0.016425000000     0.435533333333     0.635850000000     0.3        
C        C      0.220025000000     0.413533333333     0.602250000000     0.3        
C        C      0.223375000000     0.381800000000     0.613450000000     0.3        
C        C      0.049575000000     0.394133333333     0.668700000000     0.3        
C        C      0.035050000000     0.468200000000     0.646750000000     0.3        
C        C      0.190875000000     0.424166666667     0.579400000000     0.3        
C        C      0.204400000000     0.349100000000     0.602750000000     0.3        
C        C      0.017925000000     0.643033333333     0.734900000000     0.3        
C        C      0.022175000000     0.648800000000     0.766600000000     0.3        
C        C      0.034050000000     0.617566666667     0.714550000000     0.3        
C        C      0.048125000000     0.632400000000     0.788850000000     0.3        
C        C      0.229625000000     0.429433333333     0.896350000000     0.3        
C        C      0.233575000000     0.397800000000     0.885850000000     0.3        
C        C      0.029975000000     0.419800000000     0.852250000000     0.3        
C        C      0.026625000000     0.451533333333     0.863450000000     0.3        
C        C      0.200425000000     0.439200000000     0.918700000000     0.3        
C        C      0.214950000000     0.365133333333     0.896750000000     0.3        
C        C      0.059125000000     0.409166666667     0.829400000000     0.3        
C        C      0.045600000000     0.484233333333     0.852750000000     0.3        
C        C      0.232075000000     0.523633333333     0.984900000000     0.3        
C        C      0.227825000000     0.517866666667     0.516600000000     0.3        
C        C      0.215950000000     0.549100000000     0.964550000000     0.3        
C        C      0.201875000000     0.534266666667     0.538850000000     0.3        
C        C      0.229625000000     0.929433333333     0.353650000000     0.3        
C        C      0.233575000000     0.897800000000     0.364150000000     0.3        
C        C      0.029975000000     0.919800000000     0.397750000000     0.3        
C        C      0.026625000000     0.951533333333     0.386550000000     0.3        
C        C      0.200425000000     0.939200000000     0.331300000000     0.3        
C        C      0.214950000000     0.865133333333     0.353250000000     0.3        
C        C      0.059125000000     0.909166666667     0.420600000000     0.3        
C        C      0.045600000000     0.984233333333     0.397250000000     0.3        
C        C      0.232075000000     0.690300000000     0.265100000000     0.3        
C        C      0.227825000000     0.684533333333     0.233400000000     0.3        
C        C      0.215950000000     0.715766666667     0.285450000000     0.3        
C        C      0.201875000000     0.700933333333     0.211150000000     0.3        
C        C      0.020375000000     0.903900000000     0.103650000000     0.3        
C        C      0.016425000000     0.935533333333     0.114150000000     0.3        
C        C      0.220025000000     0.913533333333     0.147750000000     0.3        
C        C      0.223375000000     0.881800000000     0.136550000000     0.3        
C        C      0.049575000000     0.894133333333     0.081300000000     0.3        
C        C      0.035050000000     0.968200000000     0.103250000000     0.3        
C        C      0.190875000000     0.924166666667     0.170600000000     0.3        
C        C      0.204400000000     0.849100000000     0.147250000000     0.3        
C        C      0.017925000000     0.809700000000     0.015100000000     0.3        
C        C      0.022175000000     0.815466666667     0.483400000000     0.3        
C        C      0.034050000000     0.784233333333     0.035450000000     0.3        
C        C      0.048125000000     0.799066666667     0.461150000000     0.3        
C        C      0.020375000000     0.737233333333     0.146350000000     0.3        
C        C      0.016425000000     0.768866666667     0.135850000000     0.3        
C        C      0.220025000000     0.746866666667     0.102250000000     0.3        
C        C      0.223375000000     0.715133333333     0.113450000000     0.3        
C        C      0.049575000000     0.727466666667     0.168700000000     0.3        
C        C      0.035050000000     0.801533333333     0.146750000000     0.3        
C        C      0.190875000000     0.757500000000     0.079400000000     0.3        
C        C      0.204400000000     0.682433333333     0.102750000000     0.3        
C        C      0.017925000000     0.976366666667     0.234900000000     0.3        
C        C      0.022175000000     0.982133333333     0.266600000000     0.3        
C        C      0.034050000000     0.950900000000     0.214550000000     0.3        
C        C      0.048125000000     0.965733333333     0.288850000000     0.3        
C        C      0.229625000000     0.762766666667     0.396350000000     0.3        
C        C      0.233575000000     0.731133333333     0.385850000000     0.3        
C        C      0.029975000000     0.753133333333     0.352250000000     0.3        
C        C      0.026625000000     0.784866666667     0.363450000000     0.3        
C        C      0.200425000000     0.772533333333     0.418700000000     0.3        
C        C      0.214950000000     0.698466666667     0.396750000000     0.3        
C        C      0.059125000000     0.742500000000     0.329400000000     0.3        
C        C      0.045600000000     0.817566666667     0.352750000000     0.3        
C        C      0.232075000000     0.856966666667     0.484900000000     0.3        
C        C      0.227825000000     0.851200000000     0.016600000000     0.3        
C        C      0.215950000000     0.882433333333     0.464550000000     0.3        
C        C      0.201875000000     0.867600000000     0.038850000000     0.3        
C        C      0.229625000000     0.929433333333     0.853650000000     0.3        
C        C      0.233575000000     0.897800000000     0.864150000000     0.3        
C        C      0.029975000000     0.919800000000     0.897750000000     0.3        
C        C      0.026625000000     0.951533333333     0.886550000000     0.3        
C        C      0.200425000000     0.939200000000     0.831300000000     0.3        
C        C      0.214950000000     0.865133333333     0.853250000000     0.3        
C        C      0.059125000000     0.909166666667     0.920600000000     0.3        
C        C      0.045600000000     0.984233333333     0.897250000000     0.3        
C        C      0.232075000000     0.690300000000     0.765100000000     0.3        
C        C      0.227825000000     0.684533333333     0.733400000000     0.3        
C        C      0.215950000000     0.715766666667     0.785450000000     0.3        
C        C      0.201875000000     0.700933333333     0.711150000000     0.3        
C        C      0.020375000000     0.903900000000     0.603650000000     0.3        
C        C      0.016425000000     0.935533333333     0.614150000000     0.3        
C        C      0.220025000000     0.913533333333     0.647750000000     0.3        
C        C      0.223375000000     0.881800000000     0.636550000000     0.3        
C        C      0.049575000000     0.894133333333     0.581300000000     0.3        
C        C      0.035050000000     0.968200000000     0.603250000000     0.3        
C        C      0.190875000000     0.924166666667     0.670600000000     0.3        
C        C      0.204400000000     0.849100000000     0.647250000000     0.3        
C        C      0.017925000000     0.809700000000     0.515100000000     0.3        
C        C      0.022175000000     0.815466666667     0.983400000000     0.3        
C        C      0.034050000000     0.784233333333     0.535450000000     0.3        
C        C      0.048125000000     0.799066666667     0.961150000000     0.3        
C        C      0.020375000000     0.737233333333     0.646350000000     0.3        
C        C      0.016425000000     0.768866666667     0.635850000000     0.3        
C        C      0.220025000000     0.746866666667     0.602250000000     0.3        
C        C      0.223375000000     0.715133333333     0.613450000000     0.3        
C        C      0.049575000000     0.727466666667     0.668700000000     0.3        
C        C      0.035050000000     0.801533333333     0.646750000000     0.3        
C        C      0.190875000000     0.757500000000     0.579400000000     0.3        
C        C      0.204400000000     0.682433333333     0.602750000000     0.3        
C        C      0.017925000000     0.976366666667     0.734900000000     0.3        
C        C      0.022175000000     0.982133333333     0.766600000000     0.3        
C        C      0.034050000000     0.950900000000     0.714550000000     0.3        
C        C      0.048125000000     0.965733333333     0.788850000000     0.3        
C        C      0.229625000000     0.762766666667     0.896350000000     0.3        
C        C      0.233575000000     0.731133333333     0.885850000000     0.3        
C        C      0.029975000000     0.753133333333     0.852250000000     0.3        
C        C      0.026625000000     0.784866666667     0.863450000000     0.3        
C        C      0.200425000000     0.772533333333     0.918700000000     0.3        
C        C      0.214950000000     0.698466666667     0.896750000000     0.3        
C        C      0.059125000000     0.742500000000     0.829400000000     0.3        
C        C      0.045600000000     0.817566666667     0.852750000000     0.3        
C        C      0.232075000000     0.856966666667     0.984900000000     0.3        
C        C      0.227825000000     0.851200000000     0.516600000000     0.3        
C        C      0.215950000000     0.882433333333     0.964550000000     0.3        
C        C      0.201875000000     0.867600000000     0.538850000000     0.3        
C        C      0.479625000000     0.262766666667     0.353650000000     0.3        
C        C      0.483575000000     0.231133333333     0.364150000000     0.3        
C        C      0.279975000000     0.253133333333     0.397750000000     0.3        
C        C      0.276625000000     0.284866666667     0.386550000000     0.3        
C        C      0.450425000000     0.272533333333     0.331300000000     0.3        
C        C      0.464950000000     0.198466666667     0.353250000000     0.3        
C        C      0.309125000000     0.242500000000     0.420600000000     0.3        
C        C      0.295600000000     0.317566666667     0.397250000000     0.3        
C        C      0.482075000000     0.023633333333     0.265100000000     0.3        
C        C      0.477825000000     0.017866666667     0.233400000000     0.3        
C        C      0.465950000000     0.049100000000     0.285450000000     0.3        
C        C      0.451875000000     0.034266666667     0.211150000000     0.3        
C        C      0.270375000000     0.237233333333     0.103650000000     0.3        
C        C      0.266425000000     0.268866666667     0.114150000000     0.3        
C        C      0.470025000000     0.246866666667     0.147750000000     0.3        
C        C      0.473375000000     0.215133333333     0.136550000000     0.3        
C        C      0.299575000000     0.227466666667     0.081300000000     0.3        
C        C      0.285050000000     0.301533333333     0.103250000000     0.3        
C        C      0.440875000000     0.257500000000     0.170600000000     0.3        
C        C      0.454400000000     0.182433333333     0.147250000000     0.3        
C        C      0.267925000000     0.143033333333     0.015100000000     0.3        
C        C      0.272175000000     0.148800000000     0.483400000000     0.3        
C        C      0.284050000000     0.117566666667     0.035450000000     0.3        
C        C      0.298125000000     0.132400000000     0.461150000000     0.3        
C        C      0.270375000000     0.070566666667     0.146350000000     0.3        
C        C      0.266425000000     0.102200000000     0.135850000000     0.3        
C        C      0.470025000000     0.080200000000     0.102250000000     0.3        
C        C      0.473375000000     0.048466666667     0.113450000000     0.3        
C        C      0.299575000000     0.060800000000     0.168700000000     0.3        
C        C      0.285050000000     0.134866666667     0.146750000000     0.3        
C        C      0.440875000000     0.090833333333     0.079400000000     0.3        
C        C      0.454400000000     0.015766666667     0.102750000000     0.3        
C        C      0.267925000000     0.309700000000     0.234900000000     0.3        
C        C      0.272175000000     0.315466666667     0.266600000000     0.3        
C        C      0.284050000000     0.284233333333     0.214550000000     0.3        
C        C      0.298125000000     0.299066666667     0.288850000000     0.3        
C        C      0.479625000000     0.096100000000     0.396350000000     0.3        
C        C      0.483575000000     0.064466666667     0.385850000000     0.3        
C        C      0.279975000000     0.086466666667     0.352250000000     0.3        
C        C      0.276625000000     0.118200000000     0.363450000000     0.3        
C        C      0.450425000000     0.105866666667     0.418700000000     0.3        
C        C      0.464950000000     0.031800000000     0.396750000000     0.3        
C        C      0.309125000000     0.075833333333     0.329400000000     0.3        
C        C      0.295600000000     0.150900000000     0.352750000000     0.3        
C        C      0.482075000000     0.190300000000     0.484900000000     0.3        
C        C      0.477825000000     0.184533333333     0.016600000000     0.3        
C        C      0.465950000000     0.215766666667     0.464550000000     0.3        
C        C      0.451875000000     0.200933333333     0.038850000000     0.3        
C        C      0.479625000000     0.262766666667     0.853650000000     0.3        
C        C      0.483575000000     0.231133333333     0.864150000000     0.3        
C        C      0.279975000000     0.253133333333     0.897750000000     0.3        
C        C      0.276625000000     0.284866666667     0.886550000000     0.3        
C        C      0.450425000000     0.272533333333     0.831300000000     0.3        
C        C      0.464950000000     0.198466666667     0.853250000000     0.3        
C        C      0.309125000000     0.242500000000     0.920600000000     0.3        
C        C      0.295600000000     0.317566666667     0.897250000000     0.3        
C        C      0.482075000000     0.023633333333     0.765100000000     0.3        
C        C      0.477825000000     0.017866666667     0.733400000000     0.3        
C        C      0.465950000000     0.049100000000     0.785450000000     0.3        
C        C      0.451875000000     0.034266666667     0.711150000000     0.3        
C        C      0.270375000000     0.237233333333     0.603650000000     0.3        
C        C      0.266425000000     0.268866666667     0.614150000000     0.3        
C        C      0.470025000000     0.246866666667     0.647750000000     0.3        
C        C      0.473375000000     0.215133333333     0.636550000000     0.3        
C        C      0.299575000000     0.227466666667     0.581300000000     0.3        
C        C      0.285050000000     0.301533333333     0.603250000000     0.3        
C        C      0.440875000000     0.257500000000     0.670600000000     0.3        
C        C      0.454400000000     0.182433333333     0.647250000000     0.3        
C        C      0.267925000000     0.143033333333     0.515100000000     0.3        
C        C      0.272175000000     0.148800000000     0.983400000000     0.3        
C        C      0.284050000000     0.117566666667     0.535450000000     0.3        
C        C      0.298125000000     0.132400000000     0.961150000000     0.3        
C        C      0.270375000000     0.070566666667     0.646350000000     0.3        
C        C      0.266425000000     0.102200000000     0.635850000000     0.3        
C        C      0.470025000000     0.080200000000     0.602250000000     0.3        
C        C      0.473375000000     0.048466666667     0.613450000000     0.3        
C        C      0.299575000000     0.060800000000     0.668700000000     0.3        
C        C      0.285050000000     0.134866666667     0.646750000000     0.3        
C        C      0.440875000000     0.090833333333     0.579400000000     0.3        
C        C      0.454400000000     0.015766666667     0.602750000000     0.3        
C        C      0.267925000000     0.309700000000     0.734900000000     0.3        
C        C      0.272175000000     0.315466666667     0.766600000000     0.3        
C        C      0.284050000000     0.284233333333     0.714550000000     0.3        
C        C      0.298125000000     0.299066666667     0.788850000000     0.3        
C        C      0.479625000000     0.096100000000     0.896350000000     0.3        
C        C      0.483575000000     0.064466666667     0.885850000000     0.3        
C        C      0.279975000000     0.086466666667     0.852250000000     0.3        
C        C      0.276625000000     0.118200000000     0.863450000000     0.3        
C        C      0.450425000000     0.105866666667     0.918700000000     0.3        
C        C      0.464950000000     0.031800000000     0.896750000000     0.3        
C        C      0.309125000000     0.075833333333     0.829400000000     0.3        
C        C      0.295600000000     0.150900000000     0.852750000000     0.3        
C        C      0.482075000000     0.190300000000     0.984900000000     0.3        
C        C      0.477825000000     0.184533333333     0.516600000000     0.3        
C        C      0.465950000000     0.215766666667     0.964550000000     0.3        
C        C      0.451875000000     0.200933333333     0.538850000000     0.3        
C        C      0.479625000000     0.596100000000     0.353650000000     0.3        
C        C      0.483575000000     0.564466666667     0.364150000000     0.3        
C        C      0.279975000000     0.586466666667     0.397750000000     0.3        
C        C      0.276625000000     0.618200000000     0.386550000000     0.3        
C        C      0.450425000000     0.605866666667     0.331300000000     0.3        
C        C      0.464950000000     0.531800000000     0.353250000000     0.3        
C        C      0.309125000000     0.575833333333     0.420600000000     0.3        
C        C      0.295600000000     0.650900000000     0.397250000000     0.3        
C        C      0.482075000000     0.356966666667     0.265100000000     0.3        
C        C      0.477825000000     0.351200000000     0.233400000000     0.3        
C        C      0.465950000000     0.382433333333     0.285450000000     0.3        
C        C      0.451875000000     0.367600000000     0.211150000000     0.3        
C        C      0.270375000000     0.570566666667     0.103650000000     0.3        
C        C      0.266425000000     0.602200000000     0.114150000000     0.3        
C        C      0.470025000000     0.580200000000     0.147750000000     0.3        
C        C      0.473375000000     0.548466666667     0.136550000000     0.3        
C        C      0.299575000000     0.560800000000     0.081300000000     0.3        
C        C      0.285050000000     0.634866666667     0.103250000000     0.3        
C        C      0.440875000000     0.590833333333     0.170600000000     0.3        
C        C      0.454400000000     0.515766666667     0.147250000000     0.3        
C        C      0.267925000000     0.476366666667     0.015100000000     0.3        
C        C      0.272175000000     0.482133333333     0.483400000000     0.3        
C        C      0.284050000000     0.450900000000     0.035450000000     0.3        
C        C      0.298125000000     0.465733333333     0.461150000000     0.3        
C        C      0.270375000000     0.403900000000     0.146350000000     0.3        
C        C      0.266425000000     0.435533333333     0.135850000000     0.3        
C        C      0.470025000000     0.413533333333     0.102250000000     0.3        
C        C      0.473375000000     0.381800000000     0.113450000000     0.3        
C        C      0.299575000000     0.394133333333     0.168700000000     0.3        
C        C      0.285050000000     0.468200000000     0.146750000000     0.3        
C        C      0.440875000000     0.424166666667     0.079400000000     0.3        
C        C      0.454400000000     0.349100000000     0.102750000000     0.3        
C        C      0.267925000000     0.643033333333     0.234900000000     0.3        
C        C      0.272175000000     0.648800000000     0.266600000000     0.3        
C        C      0.284050000000     0.617566666667     0.214550000000     0.3        
C        C      0.298125000000     0.632400000000     0.288850000000     0.3        
C        C      0.479625000000     0.429433333333     0.396350000000     0.3        
C        C      0.483575000000     0.397800000000     0.385850000000     0.3        
C        C      0.279975000000     0.419800000000     0.352250000000     0.3        
C        C      0.276625000000     0.451533333333     0.363450000000     0.3        
C        C      0.450425000000     0.439200000000     0.418700000000     0.3        
C        C      0.464950000000     0.365133333333     0.396750000000     0.3        
C        C      0.309125000000     0.409166666667     0.329400000000     0.3        
C        C      0.295600000000     0.484233333333     0.352750000000     0.3        
C        C      0.482075000000     0.523633333333     0.484900000000     0.3        
C        C      0.477825000000     0.517866666667     0.016600000000     0.3        
C        C      0.465950000000     0.549100000000     0.464550000000     0.3        
C        C      0.451875000000     0.534266666667     0.038850000000     0.3        
C        C      0.479625000000     0.596100000000     0.853650000000     0.3        
C        C      0.483575000000     0.564466666667     0.864150000000     0.3        
C        C      0.279975000000     0.586466666667     0.897750000000     0.3        
C        C      0.276625000000     0.618200000000     0.886550000000     0.3        
C        C      0.450425000000     0.605866666667     0.831300000000     0.3        
C        C      0.464950000000     0.531800000000     0.853250000000     0.3        
C        C      0.309125000000     0.575833333333     0.920600000000     0.3        
C        C      0.295600000000     0.650900000000     0.897250000000     0.3        
C        C      0.482075000000     0.356966666667     0.765100000000     0.3        
C        C      0.477825000000     0.351200000000     0.733400000000     0.3        
C        C      0.465950000000     0.382433333333     0.785450000000     0.3        
C        C      0.451875000000     0.367600000000     0.711150000000     0.3        
C        C      0.270375000000     0.570566666667     0.603650000000     0.3        
C        C      0.266425000000     0.602200000000     0.614150000000     0.3        
C        C      0.470025000000     0.580200000000     0.647750000000     0.3        
C        C      0.473375000000     0.548466666667     0.636550000000     0.3        
C        C      0.299575000000     0.560800000000     0.581300000000     0.3        
C        C      0.285050000000     0.634866666667     0.603250000000     0.3        
C        C      0.440875000000     0.590833333333     0.670600000000     0.3        
C        C      0.454400000000     0.515766666667     0.647250000000     0.3        
C        C      0.267925000000     0.476366666667     0.515100000000     0.3        
C        C      0.272175000000     0.482133333333     0.983400000000     0.3        
C        C      0.284050000000     0.450900000000     0.535450000000     0.3        
C        C      0.298125000000     0.465733333333     0.961150000000     0.3        
C        C      0.270375000000     0.403900000000     0.646350000000     0.3        
C        C      0.266425000000     0.435533333333     0.635850000000     0.3        
C        C      0.470025000000     0.413533333333     0.602250000000     0.3        
C        C      0.473375000000     0.381800000000     0.613450000000     0.3        
C        C      0.299575000000     0.394133333333     0.668700000000     0.3        
C        C      0.285050000000     0.468200000000     0.646750000000     0.3        
C        C      0.440875000000     0.424166666667     0.579400000000     0.3        
C        C      0.454400000000     0.349100000000     0.602750000000     0.3        
C        C      0.267925000000     0.643033333333     0.734900000000     0.3        
C        C      0.272175000000     0.648800000000     0.766600000000     0.3        
C        C      0.284050000000     0.617566666667     0.714550000000     0.3        
C        C      0.298125000000     0.632400000000     0.788850000000     0.3        
C        C      0.479625000000     0.429433333333     0.896350000000     0.3        
C        C      0.483575000000     0.397800000000     0.885850000000     0.3        
C        C      0.279975000000     0.419800000000     0.852250000000     0.3        
C        C      0.276625000000     0.451533333333     0.863450000000     0.3        
C        C      0.450425000000     0.439200000000     0.918700000000     0.3        
C        C      0.464950000000     0.365133333333     0.896750000000     0.3        
C        C      0.309125000000     0.409166666667     0.829400000000     0.3        
C        C      0.295600000000     0.484233333333     0.852750000000     0.3        
C        C      0.482075000000     0.523633333333     0.984900000000     0.3        
C        C      0.477825000000     0.517866666667     0.516600000000     0.3        
C        C      0.465950000000     0.549100000000     0.964550000000     0.3        
C        C      0.451875000000     0.534266666667     0.538850000000     0.3        
C        C      0.479625000000     0.929433333333     0.353650000000     0.3        
C        C      0.483575000000     0.897800000000     0.364150000000     0.3        
C        C      0.279975000000     0.919800000000     0.397750000000     0.3        
C        C      0.276625000000     0.951533333333     0.386550000000     0.3        
C        C      0.450425000000     0.939200000000     0.331300000000     0.3        
C        C      0.464950000000     0.865133333333     0.353250000000     0.3        
C        C      0.309125000000     0.909166666667     0.420600000000     0.3        
C        C      0.295600000000     0.984233333333     0.397250000000     0.3        
C        C      0.482075000000     0.690300000000     0.265100000000     0.3        
C        C      0.477825000000     0.684533333333     0.233400000000     0.3        
C        C      0.465950000000     0.715766666667     0.285450000000     0.3        
C        C      0.451875000000     0.700933333333     0.211150000000     0.3        
C        C      0.270375000000     0.903900000000     0.103650000000     0.3        
C        C      0.266425000000     0.935533333333     0.114150000000     0.3        
C        C      0.470025000000     0.913533333333     0.147750000000     0.3        
C        C      0.473375000000     0.881800000000     0.136550000000     0.3        
C        C      0.299575000000     0.894133333333     0.081300000000     0.3        
C        C      0.285050000000     0.968200000000     0.103250000000     0.3        
C        C      0.440875000000     0.924166666667     0.170600000000     0.3        
C        C      0.454400000000     0.849100000000     0.147250000000     0.3        
C        C      0.267925000000     0.809700000000     0.015100000000     0.3        
C        C      0.272175000000     0.815466666667     0.483400000000     0.3        
C        C      0.284050000000     0.784233333333     0.035450000000     0.3        
C        C      0.298125000000     0.799066666667     0.461150000000     0.3        
C        C      0.270375000000     0.737233333333     0.146350000000     0.3        
C        C      0.266425000000     0.768866666667     0.135850000000     0.3        
C        C      0.470025000000     0.746866666667     0.102250000000     0.3        
C        C      0.473375000000     0.715133333333     0.113450000000     0.3        
C        C      0.299575000000     0.727466666667     0.168700000000     0.3        
C        C      0.285050000000     0.801533333333     0.146750000000     0.3        
C        C      0.440875000000     0.757500000000     0.079400000000     0.3        
C        C      0.454400000000     0.682433333333     0.102750000000     0.3        
C        C      0.267925000000     0.976366666667     0.234900000000     0.3        
C        C      0.272175000000     0.982133333333     0.266600000000     0.3        
C        C      0.284050000000     0.950900000000     0.214550000000     0.3        
C        C      0.298125000000     0.965733333333     0.288850000000     0.3        
C        C      0.479625000000     0.762766666667     0.396350000000     0.3        
C        C      0.483575000000     0.731133333333     0.385850000000     0.3        
C        C      0.279975000000     0.753133333333     0.352250000000     0.3        
C        C      0.276625000000     0.784866666667     0.363450000000     0.3        
C        C      0.450425000000     0.772533333333     0.418700000000     0.3        
C        C      0.464950000000     0.698466666667     0.396750000000     0.3        
C        C      0.309125000000     0.742500000000     0.329400000000     0.3        
C        C      0.295600000000     0.817566666667     0.352750000000     0.3        
C        C      0.482075000000     0.856966666667     0.484900000000     0.3        
C        C      0.477825000000     0.851200000000     0.016600000000     0.3        
C        C      0.465950000000     0.882433333333     0.464550000000     0.3        
C        C      0.451875000000     0.867600000000     0.038850000000     0.3        
C        C      0.479625000000     0.929433333333     0.853650000000     0.3        
C        C      0.483575000000     0.897800000000     0.864150000000     0.3        
C        C      0.279975000000     0.919800000000     0.897750000000     0.3        
C        C      0.276625000000     0.951533333333     0.886550000000     0.3        
C        C      0.450425000000     0.939200000000     0.831300000000     0.3        
C        C      0.464950000000     0.865133333333     0.853250000000     0.3        
C        C      0.309125000000     0.909166666667     0.920600000000     0.3        
C        C      0.295600000000     0.984233333333     0.897250000000     0.3        
C        C      0.482075000000     0.690300000000     0.765100000000     0.3        
C        C      0.477825000000     0.684533333333     0.733400000000     0.3        
C        C      0.465950000000     0.715766666667     0.785450000000     0.3        
C        C      0.451875000000     0.700933333333     0.711150000000     0.3        
C        C      0.270375000000     0.903900000000     0.603650000000     0.3        
C        C      0.266425000000     0.935533333333     0.614150000000     0.3        
C        C      0.470025000000     0.913533333333     0.647750000000     0.3        
C        C      0.473375000000     0.881800000000     0.636550000000     0.3        
C        C      0.299575000000     0.894133333333     0.581300000000     0.3        
C        C      0.285050000000     0.968200000000     0.603250000000     0.3        
C        C      0.440875000000     0.924166666667     0.670600000000     0.3        
C        C      0.454400000000     0.849100000000     0.647250000000     0.3        
C        C      0.267925000000     0.809700000000     0.515100000000     0.3        
C        C      0.272175000000     0.815466666667     0.983400000000     0.3        
C        C      0.284050000000     0.784233333333     0.535450000000     0.3        
C        C      0.298125000000     0.799066666667     0.961150000000     0.3        
C        C      0.270375000000     0.737233333333     0.646350000000     0.3        
C        C      0.266425000000     0.768866666667     0.635850000000     0.3        
C        C      0.470025000000     0.746866666667     0.602250000000     0.3        
C        C      0.473375000000     0.715133333333     0.613450000000     0.3        
C        C      0.299575000000     0.727466666667     0.668700000000     0.3        
C        C      0.285050000000     0.801533333333     0.646750000000     0.3        
C        C      0.440875000000     0.757500000000     0.579400000000     0.3        
C        C      0.454400000000     0.682433333333     0.602750000000     0.3        
C        C      0.267925000000     0.976366666667     0.734900000000     0.3        
C        C      0.272175000000     0.982133333333     0.766600000000     0.3        
C        C      0.284050000000     0.950900000000     0.714550000000     0.3        
C        C      0.298125000000     0.965733333333     0.788850000000     0.3        
C        C      0.479625000000     0.762766666667     0.896350000000     0.3        
C        C      0.483575000000     0.731133333333     0.885850000000     0.3        
C        C      0.279975000000     0.753133333333     0.852250000000     0.3        
C        C      0.276625000000     0.784866666667     0.863450000000     0.3        
C        C      0.450425000000     0.772533333333     0.918700000000     0.3        
C        C      0.464950000000     0.698466666667     0.896750000000     0.3        
C        C      0.309125000000     0.742500000000     0.829400000000     0.3        
C        C      0.295600000000     0.817566666667     0.852750000000     0.3        
C        C      0.482075000000     0.856966666667     0.984900000000     0.3        
C        C      0.477825000000     0.851200000000     0.516600000000     0.3        
C        C      0.465950000000     0.882433333333     0.964550000000     0.3        
C        C      0.451875000000     0.867600000000     0.538850000000     0.3        
C        C      0.729625000000     0.262766666667     0.353650000000     0.3        
C        C      0.733575000000     0.231133333333     0.364150000000     0.3        
C        C      0.529975000000     0.253133333333     0.397750000000     0.3        
C        C      0.526625000000     0.284866666667     0.386550000000     0.3        
C        C      0.700425000000     0.272533333333     0.331300000000     0.3        
C        C      0.714950000000     0.198466666667     0.353250000000     0.3        
C        C      0.559125000000     0.242500000000     0.420600000000     0.3        
C        C      0.545600000000     0.317566666667     0.397250000000     0.3        
C        C      0.732075000000     0.023633333333     0.265100000000     0.3        
C        C      0.727825000000     0.017866666667     0.233400000000     0.3        
C        C      0.715950000000     0.049100000000     0.285450000000     0.3        
C        C      0.701875000000     0.034266666667     0.211150000000     0.3        
C        C      0.520375000000     0.237233333333     0.103650000000     0.3        
C        C      0.516425000000     0.268866666667     0.114150000000     0.3        
C        C      0.720025000000     0.246866666667     0.147750000000     0.3        
C        C      0.723375000000     0.215133333333     0.136550000000     0.3        
C        C      0.549575000000     0.227466666667     0.081300000000     0.3        
C        C      0.535050000000     0.301533333333     0.103250000000     0.3        
C        C      0.690875000000     0.257500000000     0.170600000000     0.3        
C        C      0.704400000000     0.182433333333     0.147250000000     0.3        
C        C      0.517925000000     0.143033333333     0.015100000000     0.3        
C        C      0.522175000000     0.148800000000     0.483400000000     0.3        
C        C      0.534050000000     0.117566666667     0.035450000000     0.3        
C        C      0.548125000000     0.132400000000     0.461150000000     0.3        
C        C      0.520375000000     0.070566666667     0.146350000000     0.3        
C        C      0.516425000000     0.102200000000     0.135850000000     0.3        
C        C      0.720025000000     0.080200000000     0.102250000000     0.3        
C        C      0.723375000000     0.048466666667     0.113450000000     0.3        
C        C      0.549575000000     0.060800000000     0.168700000000     0.3        
C        C      0.535050000000     0.134866666667     0.146750000000     0.3        
C        C      0.690875000000     0.090833333333     0.079400000000     0.3        
C        C      0.704400000000     0.015766666667     0.102750000000     0.3        
C        C      0.517925000000     0.309700000000     0.234900000000     0.3        
C        C      0.522175000000     0.315466666667     0.266600000000     0.3        
C        C      0.534050000000     0.284233333333     0.214550000000     0.3        
C        C      0.548125000000     0.299066666667     0.288850000000     0.3        
C        C      0.729625000000     0.096100000000     0.396350000000     0.3        
C        C      0.733575000000     0.064466666667     0.385850000000     0.3        
C        C      0.529975000000     0.086466666667     0.352250000000     0.3        
C        C      0.526625000000     0.118200000000     0.363450000000     0.3        
C        C      0.700425000000     0.105866666667     0.418700000000     0.3        
C        C      0.714950000000     0.031800000000     0.396750000000     0.3        
C        C      0.559125000000     0.075833333333     0.329400000000     0.3        
C        C      0.545600000000     0.150900000000     0.352750000000     0.3        
C        C      0.732075000000     0.190300000000     0.484900000000     0.3        
C        C      0.727825000000     0.184533333333     0.016600000000     0.3        
C        C      0.715950000000     0.215766666667     0.464550000000     0.3        
C        C      0.701875000000     0.200933333333     0.038850000000     0.3        
C        C      0.729625000000     0.262766666667     0.853650000000     0.3        
C        C      0.733575000000     0.231133333333     0.864150000000     0.3        
C        C      0.529975000000     0.253133333333     0.897750000000     0.3        
C        C      0.526625000000     0.284866666667     0.886550000000     0.3        
C        C      0.700425000000     0.272533333333     0.831300000000     0.3        
C        C      0.714950000000     0.198466666667     0.853250000000     0.3        
C        C      0.559125000000     0.242500000000     0.920600000000     0.3        
C        C      0.545600000000     0.317566666667     0.897250000000     0.3        
C        C      0.732075000000     0.023633333333     0.765100000000     0.3        
C        C      0.727825000000     0.017866666667     0.733400000000     0.3        
C        C      0.715950000000     0.049100000000     0.785450000000     0.3        
C        C      0.701875000000     0.034266666667     0.711150000000     0.3        
C        C      0.520375000000     0.237233333333     0.603650000000     0.3        
C        C      0.516425000000     0.268866666667     0.614150000000     0.3        
C        C      0.720025000000     0.246866666667     0.647750000000     0.3        
C        C      0.723375000000     0.215133333333     0.636550000000     0.3        
C        C      0.549575000000     0.227466666667     0.581300000000     0.3        
C        C      0.535050000000     0.301533333333     0.603250000000     0.3        
C        C      0.690875000000     0.257500000000     0.670600000000     0.3        
C        C      0.704400000000     0.182433333333     0.647250000000     0.3        
C        C      0.517925000000     0.143033333333     0.515100000000     0.3        
C        C      0.522175000000     0.148800000000     0.983400000000     0.3        
C        C      0.534050000000     0.117566666667     0.535450000000     0.3        
C        C      0.548125000000     0.132400000000     0.961150000000     0.3        
C        C      0.520375000000     0.070566666667     0.646350000000     0.3        
C        C      0.516425000000     0.102200000000     0.635850000000     0.3        
C        C      0.720025000000     0.080200000000     0.602250000000     0.3        
C        C      0.723375000000     0.048466666667     0.613450000000     0.3        
C        C      0.549575000000     0.060800000000     0.668700000000     0.3        
C        C      0.535050000000     0.134866666667     0.646750000000     0.3        
C        C      0.690875000000     0.090833333333     0.579400000000     0.3        
C        C      0.704400000000     0.015766666667     0.602750000000     0.3        
C        C      0.517925000000     0.309700000000     0.734900000000     0.3        
C        C      0.522175000000     0.315466666667     0.766600000000     0.3        
C        C      0.534050000000     0.284233333333     0.714550000000     0.3        
C        C      0.548125000000     0.299066666667     0.788850000000     0.3        
C        C      0.729625000000     0.096100000000     0.896350000000     0.3        
C        C      0.733575000000     0.064466666667     0.885850000000     0.3        
C        C      0.529975000000     0.086466666667     0.852250000000     0.3        
C        C      0.526625000000     0.118200000000     0.863450000000     0.3        
C        C      0.700425000000     0.105866666667     0.918700000000     0.3        
C        C      0.714950000000     0.031800000000     0.896750000000     0.3        
C        C      0.559125000000     0.075833333333     0.829400000000     0.3        
C        C      0.545600000000     0.150900000000     0.852750000000     0.3        
C        C      0.732075000000     0.190300000000     0.984900000000     0.3        
C        C      0.727825000000     0.184533333333     0.516600000000     0.3        
C        C      0.715950000000     0.215766666667     0.964550000000     0.3        
C        C      0.701875000000     0.200933333333     0.538850000000     0.3        
C        C      0.729625000000     0.596100000000     0.353650000000     0.3        
C        C      0.733575000000     0.564466666667     0.364150000000     0.3        
C        C      0.529975000000     0.586466666667     0.397750000000     0.3        
C        C      0.526625000000     0.618200000000     0.386550000000     0.3        
C        C      0.700425000000     0.605866666667     0.331300000000     0.3        
C        C      0.714950000000     0.531800000000     0.353250000000     0.3        
C        C      0.559125000000     0.575833333333     0.420600000000     0.3        
C        C      0.545600000000     0.650900000000     0.397250000000     0.3        
C        C      0.732075000000     0.356966666667     0.265100000000     0.3        
C        C      0.727825000000     0.351200000000     0.233400000000     0.3        
C        C      0.715950000000     0.382433333333     0.285450000000     0.3        
C        C      0.701875000000     0.367600000000     0.211150000000     0.3        
C        C      0.520375000000     0.570566666667     0.103650000000     0.3        
C        C      0.516425000000     0.602200000000     0.114150000000     0.3        
C        C      0.720025000000     0.580200000000     0.147750000000     0.3        
C        C      0.723375000000     0.548466666667     0.136550000000     0.3        
C        C      0.549575000000     0.560800000000     0.081300000000     0.3        
C        C      0.535050000000     0.634866666667     0.103250000000     0.3        
C        C      0.690875000000     0.590833333333     0.170600000000     0.3        
C        C      0.704400000000     0.515766666667     0.147250000000     0.3        
C        C      0.517925000000     0.476366666667     0.015100000000     0.3        
C        C      0.522175000000     0.482133333333     0.483400000000     0.3        
C        C      0.534050000000     0.450900000000     0.035450000000     0.3        
C        C      0.548125000000     0.465733333333     0.461150000000     0.3        
C        C      0.520375000000     0.403900000000     0.146350000000     0.3        
C        C      0.516425000000     0.435533333333     0.135850000000     0.3        
C        C      0.720025000000     0.413533333333     0.102250000000     0.3        
C        C      0.723375000000     0.381800000000     0.113450000000     0.3        
C        C      0.549575000000     0.394133333333     0.168700000000     0.3        
C        C      0.535050000000     0.468200000000     0.146750000000     0.3        
C        C      0.690875000000     0.424166666667     0.079400000000     0.3        
C        C      0.704400000000     0.349100000000     0.102750000000     0.3        
C        C      0.517925000000     0.643033333333     0.234900000000     0.3        
C        C      0.522175000000     0.648800000000     0.266600000000     0.3        
C        C      0.534050000000     0.617566666667     0.214550000000     0.3        
C        C      0.548125000000     0.632400000000     0.288850000000     0.3        
C        C      0.729625000000     0.429433333333     0.396350000000     0.3        
C        C      0.733575000000     0.397800000000     0.385850000000     0.3        
C        C      0.529975000000     0.419800000000     0.352250000000     0.3        
C        C      0.526625000000     0.451533333333     0.363450000000     0.3        
C        C      0.700425000000     0.439200000000     0.418700000000     0.3        
C        C      0.714950000000     0.365133333333     0.396750000000     0.3        
C        C      0.559125000000     0.409166666667     0.329400000000     0.3        
C        C      0.545600000000     0.484233333333     0.352750000000     0.3        
C        C      0.732075000000     0.523633333333     0.484900000000     0.3        
C        C      0.727825000000     0.517866666667     0.016600000000     0.3        
C        C      0.715950000000     0.549100000000     0.464550000000     0.3        
C        C      0.701875000000     0.534266666667     0.038850000000     0.3        
C        C      0.729625000000     0.596100000000     0.853650000000     0.3        
C        C      0.733575000000     0.564466666667     0.864150000000     0.3        
C        C      0.529975000000     0.586466666667     0.897750000000     0.3        
C        C      0.526625000000     0.618200000000     0.886550000000     0.3        
C        C      0.700425000000     0.605866666667     0.831300000000     0.3        
C        C      0.714950000000     0.531800000000     0.853250000000     0.3        
C        C      0.559125000000     0.575833333333     0.920600000000     0.3        
C        C      0.545600000000     0.650900000000     0.897250000000     0.3        
C        C      0.732075000000     0.356966666667     0.765100000000     0.3        
C        C      0.727825000000     0.351200000000     0.733400000000     0.3        
C        C      0.715950000000     0.382433333333     0.785450000000     0.3        
C        C      0.701875000000     0.367600000000     0.711150000000     0.3        
C        C      0.520375000000     0.570566666667     0.603650000000     0.3        
C        C      0.516425000000     0.602200000000     0.614150000000     0.3        
C        C      0.720025000000     0.580200000000     0.647750000000     0.3        
C        C      0.723375000000     0.548466666667     0.636550000000     0.3        
C        C      0.549575000000     0.560800000000     0.581300000000     0.3        
C        C      0.535050000000     0.634866666667     0.603250000000     0.3        
C        C      0.690875000000     0.590833333333     0.670600000000     0.3        
C        C      0.704400000000     0.515766666667     0.647250000000     0.3        
C        C      0.517925000000     0.476366666667     0.515100000000     0.3        
C        C      0.522175000000     0.482133333333     0.983400000000     0.3        
C        C      0.534050000000     0.450900000000     0.535450000000     0.3        
C        C      0.548125000000     0.465733333333     0.961150000000     0.3        
C        C      0.520375000000     0.403900000000     0.646350000000     0.3        
C        C      0.516425000000     0.435533333333     0.635850000000     0.3        
C        C      0.720025000000     0.413533333333     0.602250000000     0.3        
C        C      0.723375000000     0.381800000000     0.613450000000     0.3        
C        C      0.549575000000     0.394133333333     0.668700000000     0.3        
C        C      0.535050000000     0.468200000000     0.646750000000     0.3        
C        C      0.690875000000     0.424166666667     0.579400000000     0.3        
C        C      0.704400000000     0.349100000000     0.602750000000     0.3        
C        C      0.517925000000     0.643033333333     0.734900000000     0.3        
C        C      0.522175000000     0.648800000000     0.766600000000     0.3        
C        C      0.534050000000     0.617566666667     0.714550000000     0.3        
C        C      0.548125000000     0.632400000000     0.788850000000     0.3        
C        C      0.729625000000     0.429433333333     0.896350000000     0.3        
C        C      0.733575000000     0.397800000000     0.885850000000     0.3        
C        C      0.529975000000     0.419800000000     0.852250000000     0.3        
C        C      0.526625000000     0.451533333333     0.863450000000     0.3        
C        C      0.700425000000     0.439200000000     0.918700000000     0.3        
C        C      0.714950000000     0.365133333333     0.896750000000     0.3        
C        C      0.559125000000     0.409166666667     0.829400000000     0.3        
C        C      0.545600000000     0.484233333333     0.852750000000     0.3        
C        C      0.732075000000     0.523633333333     0.984900000000     0.3        
C        C      0.727825000000     0.517866666667     0.516600000000     0.3        
C        C      0.715950000000     0.549100000000     0.964550000000     0.3        
C        C      0.701875000000     0.534266666667     0.538850000000     0.3        
C        C      0.729625000000     0.929433333333     0.353650000000     0.3        
C        C      0.733575000000     0.897800000000     0.364150000000     0.3        
C        C      0.529975000000     0.919800000000     0.397750000000     0.3        
C        C      0.526625000000     0.951533333333     0.386550000000     0.3        
C        C      0.700425000000     0.939200000000     0.331300000000     0.3        
C        C      0.714950000000     0.865133333333     0.353250000000     0.3        
C        C      0.559125000000     0.909166666667     0.420600000000     0.3        
C        C      0.545600000000     0.984233333333     0.397250000000     0.3        
C        C      0.732075000000     0.690300000000     0.265100000000     0.3        
C        C      0.727825000000     0.684533333333     0.233400000000     0.3        
C        C      0.715950000000     0.715766666667     0.285450000000     0.3        
C        C      0.701875000000     0.700933333333     0.211150000000     0.3        
C        C      0.520375000000     0.903900000000     0.103650000000     0.3        
C        C      0.516425000000     0.935533333333     0.114150000000     0.3        
C        C      0.720025000000     0.913533333333     0.147750000000     0.3        
C        C      0.723375000000     0.881800000000     0.136550000000     0.3        
C        C      0.549575000000     0.894133333333     0.081300000000     0.3        
C        C      0.535050000000     0.968200000000     0.103250000000     0.3        
C        C      0.690875000000     0.924166666667     0.170600000000     0.3        
C        C      0.704400000000     0.849100000000     0.147250000000     0.3        
C        C      0.517925000000     0.809700000000     0.015100000000     0.3        
C        C      0.522175000000     0.815466666667     0.483400000000     0.3        
C        C      0.534050000000     0.784233333333     0.035450000000     0.3        
C        C      0.548125000000     0.799066666667     0.461150000000     0.3        
C        C      0.520375000000     0.737233333333     0.146350000000     0.3        
C        C      0.516425000000     0.768866666667     0.135850000000     0.3        
C        C      0.720025000000     0.746866666667     0.102250000000     0.3        
C        C      0.723375000000     0.715133333333     0.113450000000     0.3        
C        C      0.549575000000     0.727466666667     0.168700000000     0.3        
C        C      0.535050000000     0.801533333333     0.146750000000     0.3        
C        C      0.690875000000     0.757500000000     0.079400000000     0.3        
C        C      0.704400000000     0.682433333333     0.102750000000     0.3        
C        C      0.517925000000     0.976366666667     0.234900000000     0.3        
C        C      0.522175000000     0.982133333333     0.266600000000     0.3        
C        C      0.534050000000     0.950900000000     0.214550000000     0.3        
C        C      0.548125000000     0.965733333333     0.288850000000     0.3        
C        C      0.729625000000     0.762766666667     0.396350000000     0.3        
C        C      0.733575000000     0.731133333333     0.385850000000     0.3        
C        C      0.529975000000     0.753133333333     0.352250000000     0.3        
C        C      0.526625000000     0.784866666667     0.363450000000     0.3        
C        C      0.700425000000     0.772533333333     0.418700000000     0.3        
C        C      0.714950000000     0.698466666667     0.396750000000     0.3        
C        C      0.559125000000     0.742500000000     0.329400000000     0.3        
C        C      0.545600000000     0.817566666667     0.352750000000     0.3        
C        C      0.732075000000     0.856966666667     0.484900000000     0.3        
C        C      0.727825000000     0.851200000000     0.016600000000     0.3        
C        C      0.715950000000     0.882433333333     0.464550000000     0.3        
C        C      0.701875000000     0.867600000000     0.038850000000     0.3        
C        C      0.729625000000     0.929433333333     0.853650000000     0.3        
C        C      0.733575000000     0.897800000000     0.864150000000     0.3        
C        C      0.529975000000     0.919800000000     0.897750000000     0.3        
C        C      0.526625000000     0.951533333333     0.886550000000     0.3        
C        C      0.700425000000     0.939200000000     0.831300000000     0.3        
C        C      0.714950000000     0.865133333333     0.853250000000     0.3        
C        C      0.559125000000     0.909166666667     0.920600000000     0.3        
C        C      0.545600000000     0.984233333333     0.897250000000     0.3        
C        C      0.732075000000     0.690300000000     0.765100000000     0.3        
C        C      0.727825000000     0.684533333333     0.733400000000     0.3        
C        C      0.715950000000     0.715766666667     0.785450000000     0.3        
C        C      0.701875000000     0.700933333333     0.711150000000     0.3        
C        C      0.520375000000     0.903900000000     0.603650000000     0.3        
C        C      0.516425000000     0.935533333333     0.614150000000     0.3        
C        C      0.720025000000     0.913533333333     0.647750000000     0.3        
C        C      0.723375000000     0.881800000000     0.636550000000     0.3        
C        C      0.549575000000     0.894133333333     0.581300000000     0.3        
C        C      0.535050000000     0.968200000000     0.603250000000     0.3        
C        C      0.690875000000     0.924166666667     0.670600000000     0.3        
C        C      0.704400000000     0.849100000000     0.647250000000     0.3        
C        C      0.517925000000     0.809700000000     0.515100000000     0.3        
C        C      0.522175000000     0.815466666667     0.983400000000     0.3        
C        C      0.534050000000     0.784233333333     0.535450000000     0.3        
C        C      0.548125000000     0.799066666667     0.961150000000     0.3        
C        C      0.520375000000     0.737233333333     0.646350000000     0.3        
C        C      0.516425000000     0.768866666667     0.635850000000     0.3        
C        C      0.720025000000     0.746866666667     0.602250000000     0.3        
C        C      0.723375000000     0.715133333333     0.613450000000     0.3        
C        C      0.549575000000     0.727466666667     0.668700000000     0.3        
C        C      0.535050000000     0.801533333333     0.646750000000     0.3        
C        C      0.690875000000     0.757500000000     0.579400000000     0.3        
C        C      0.704400000000     0.682433333333     0.602750000000     0.3        
C        C      0.517925000000     0.976366666667     0.734900000000     0.3        
C        C      0.522175000000     0.982133333333     0.766600000000     0.3        
C        C      0.534050000000     0.950900000000     0.714550000000     0.3        
C        C      0.548125000000     0.965733333333     0.788850000000     0.3        
C        C      0.729625000000     0.762766666667     0.896350000000     0.3        
C        C      0.733575000000     0.731133333333     0.885850000000     0.3        
C        C      0.529975000000     0.753133333333     0.852250000000     0.3        
C        C      0.526625000000     0.784866666667     0.863450000000     0.3        
C        C      0.700425000000     0.772533333333     0.918700000000     0.3        
C        C      0.714950000000     0.698466666667     0.896750000000     0.3        
C        C      0.559125000000     0.742500000000     0.829400000000     0.3        
C        C      0.545600000000     0.817566666667     0.852750000000     0.3        
C        C      0.732075000000     0.856966666667     0.984900000000     0.3        
C        C      0.727825000000     0.851200000000     0.516600000000     0.3        
C        C      0.715950000000     0.882433333333     0.964550000000     0.3        
C        C      0.701875000000     0.867600000000     0.538850000000     0.3        
C        C      0.979625000000     0.262766666667     0.353650000000     0.3        
C        C      0.983575000000     0.231133333333     0.364150000000     0.3        
C        C      0.779975000000     0.253133333333     0.397750000000     0.3        
C        C      0.776625000000     0.284866666667     0.386550000000     0.3        
C        C      0.950425000000     0.272533333333     0.331300000000     0.3        
C        C      0.964950000000     0.198466666667     0.353250000000     0.3        
C        C      0.809125000000     0.242500000000     0.420600000000     0.3        
C        C      0.795600000000     0.317566666667     0.397250000000     0.3        
C        C      0.982075000000     0.023633333333     0.265100000000     0.3        
C        C      0.977825000000     0.017866666667     0.233400000000     0.3        
C        C      0.965950000000     0.049100000000     0.285450000000     0.3        
C        C      0.951875000000     0.034266666667     0.211150000000     0.3        
C        C      0.770375000000     0.237233333333     0.103650000000     0.3        
C        C      0.766425000000     0.268866666667     0.114150000000     0.3        
C        C      0.970025000000     0.246866666667     0.147750000000     0.3        
C        C      0.973375000000     0.215133333333     0.136550000000     0.3        
C        C      0.799575000000     0.227466666667     0.081300000000     0.3        
C        C      0.785050000000     0.301533333333     0.103250000000     0.3        
C        C      0.940875000000     0.257500000000     0.170600000000     0.3        
C        C      0.954400000000     0.182433333333     0.147250000000     0.3        
C        C      0.767925000000     0.143033333333     0.015100000000     0.3        
C        C      0.772175000000     0.148800000000     0.483400000000     0.3        
C        C      0.784050000000     0.117566666667     0.035450000000     0.3        
C        C      0.798125000000     0.132400000000     0.461150000000     0.3        
C        C      0.770375000000     0.070566666667     0.146350000000     0.3        
C        C      0.766425000000     0.102200000000     0.135850000000     0.3        
C        C      0.970025000000     0.080200000000     0.102250000000     0.3        
C        C      0.973375000000     0.048466666667     0.113450000000     0.3        
C        C      0.799575000000     0.060800000000     0.168700000000     0.3        
C        C      0.785050000000     0.134866666667     0.146750000000     0.3        
C        C      0.940875000000     0.090833333333     0.079400000000     0.3        
C        C      0.954400000000     0.015766666667     0.102750000000     0.3        
C        C      0.767925000000     0.309700000000     0.234900000000     0.3        
C        C      0.772175000000     0.315466666667     0.266600000000     0.3        
C        C      0.784050000000     0.284233333333     0.214550000000     0.3        
C        C      0.798125000000     0.299066666667     0.288850000000     0.3        
C        C      0.979625000000     0.096100000000     0.396350000000     0.3        
C        C      0.983575000000     0.064466666667     0.385850000000     0.3        
C        C      0.779975000000     0.086466666667     0.352250000000     0.3        
C        C      0.776625000000     0.118200000000     0.363450000000     0.3        
C        C      0.950425000000     0.105866666667     0.418700000000     0.3        
C        C      0.964950000000     0.031800000000     0.396750000000     0.3        
C        C      0.809125000000     0.075833333333     0.329400000000     0.3        
C        C      0.795600000000     0.150900000000     0.352750000000     0.3        
C        C      0.982075000000     0.190300000000     0.484900000000     0.3        
C        C      0.977825000000     0.184533333333     0.016600000000     0.3        
C        C      0.965950000000     0.215766666667     0.464550000000     0.3        
C        C      0.951875000000     0.200933333333     0.038850000000     0.3        
C        C      0.979625000000     0.262766666667     0.853650000000     0.3        
C        C      0.983575000000     0.231133333333     0.864150000000     0.3        
C        C      0.779975000000     0.253133333333     0.897750000000     0.3        
C        C      0.776625000000     0.284866666667     0.886550000000     0.3        
C        C      0.950425000000     0.272533333333     0.831300000000     0.3        
C        C      0.964950000000     0.198466666667     0.853250000000     0.3        
C        C      0.809125000000     0.242500000000     0.920600000000     0.3        
C        C      0.795600000000     0.317566666667     0.897250000000     0.3        
C        C      0.982075000000     0.023633333333     0.765100000000     0.3        
C        C      0.977825000000     0.017866666667     0.733400000000     0.3        
C        C      0.965950000000     0.049100000000     0.785450000000     0.3        
C        C      0.951875000000     0.034266666667     0.711150000000     0.3        
C        C      0.770375000000     0.237233333333     0.603650000000     0.3        
C        C      0.766425000000     0.268866666667     0.614150000000     0.3        
C        C      0.970025000000     0.246866666667     0.647750000000     0.3        
C        C      0.973375000000     0.215133333333     0.636550000000     0.3        
C        C      0.799575000000     0.227466666667     0.581300000000     0.3        
C        C      0.785050000000     0.301533333333     0.603250000000     0.3        
C        C      0.940875000000     0.257500000000     0.670600000000     0.3        
C        C      0.954400000000     0.182433333333     0.647250000000     0.3        
C        C      0.767925000000     0.143033333333     0.515100000000     0.3        
C        C      0.772175000000     0.148800000000     0.983400000000     0.3        
C        C      0.784050000000     0.117566666667     0.535450000000     0.3        
C        C      0.798125000000     0.132400000000     0.961150000000     0.3        
C        C      0.770375000000     0.070566666667     0.646350000000     0.3        
C        C      0.766425000000     0.102200000000     0.635850000000     0.3        
C        C      0.970025000000     0.080200000000     0.602250000000     0.3        
C        C      0.973375000000     0.048466666667     0.613450000000     0.3        
C        C      0.799575000000     0.060800000000     0.668700000000     0.3        
C        C      0.785050000000     0.134866666667     0.646750000000     0.3        
C        C      0.940875000000     0.090833333333     0.579400000000     0.3        
C        C      0.954400000000     0.015766666667     0.602750000000     0.3        
C        C      0.767925000000     0.309700000000     0.734900000000     0.3        
C        C      0.772175000000     0.315466666667     0.766600000000     0.3        
C        C      0.784050000000     0.284233333333     0.714550000000     0.3        
C        C      0.798125000000     0.299066666667     0.788850000000     0.3        
C        C      0.979625000000     0.096100000000     0.896350000000     0.3        
C        C      0.983575000000     0.064466666667     0.885850000000     0.3        
C        C      0.779975000000     0.086466666667     0.852250000000     0.3        
C        C      0.776625000000     0.118200000000     0.863450000000     0.3        
C        C      0.950425000000     0.105866666667     0.918700000000     0.3        
C        C      0.964950000000     0.031800000000     0.896750000000     0.3        
C        C      0.809125000000     0.075833333333     0.829400000000     0.3        
C        C      0.795600000000     0.150900000000     0.852750000000     0.3        
C        C      0.982075000000     0.190300000000     0.984900000000     0.3        
C        C      0.977825000000     0.184533333333     0.516600000000     0.3        
C        C      0.965950000000     0.215766666667     0.964550000000     0.3        
C        C      0.951875000000     0.200933333333     0.538850000000     0.3        
C        C      0.979625000000     0.596100000000     0.353650000000     0.3        
C        C      0.983575000000     0.564466666667     0.364150000000     0.3        
C        C      0.779975000000     0.586466666667     0.397750000000     0.3        
C        C      0.776625000000     0.618200000000     0.386550000000     0.3        
C        C      0.950425000000     0.605866666667     0.331300000000     0.3        
C        C      0.964950000000     0.531800000000     0.353250000000     0.3        
C        C      0.809125000000     0.575833333333     0.420600000000     0.3        
C        C      0.795600000000     0.650900000000     0.397250000000     0.3        
C        C      0.982075000000     0.356966666667     0.265100000000     0.3        
C        C      0.977825000000     0.351200000000     0.233400000000     0.3        
C        C      0.965950000000     0.382433333333     0.285450000000     0.3        
C        C      0.951875000000     0.367600000000     0.211150000000     0.3        
C        C      0.770375000000     0.570566666667     0.103650000000     0.3        
C        C      0.766425000000     0.602200000000     0.114150000000     0.3        
C        C      0.970025000000     0.580200000000     0.147750000000     0.3        
C        C      0.973375000000     0.548466666667     0.136550000000     0.3        
C        C      0.799575000000     0.560800000000     0.081300000000     0.3        
C        C      0.785050000000     0.634866666667     0.103250000000     0.3        
C        C      0.940875000000     0.590833333333     0.170600000000     0.3        
C        C      0.954400000000     0.515766666667     0.147250000000     0.3        
C        C      0.767925000000     0.476366666667     0.015100000000     0.3        
C        C      0.772175000000     0.482133333333     0.483400000000     0.3        
C        C      0.784050000000     0.450900000000     0.035450000000     0.3        
C        C      0.798125000000     0.465733333333     0.461150000000     0.3        
C        C      0.770375000000     0.403900000000     0.146350000000     0.3        
C        C      0.766425000000     0.435533333333     0.135850000000     0.3        
C        C      0.970025000000     0.413533333333     0.102250000000     0.3        
C        C      0.973375000000     0.381800000000     0.113450000000     0.3        
C        C      0.799575000000     0.394133333333     0.168700000000     0.3        
C        C      0.785050000000     0.468200000000     0.146750000000     0.3        
C        C      0.940875000000     0.424166666667     0.079400000000     0.3        
C        C      0.954400000000     0.349100000000     0.102750000000     0.3        
C        C      0.767925000000     0.643033333333     0.234900000000     0.3        
C        C      0.772175000000     0.648800000000     0.266600000000     0.3        
C        C      0.784050000000     0.617566666667     0.214550000000     0.3        
C        C      0.798125000000     0.632400000000     0.288850000000     0.3        
C        C      0.979625000000     0.429433333333     0.396350000000     0.3        
C        C      0.983575000000     0.397800000000     0.385850000000     0.3        
C        C      0.779975000000     0.419800000000     0.352250000000     0.3        
C        C      0.776625000000     0.451533333333     0.363450000000     0.3        
C        C      0.950425000000     0.439200000000     0.418700000000     0.3        
C        C      0.964950000000     0.365133333333     0.396750000000     0.3        
C        C      0.809125000000     0.409166666667     0.329400000000     0.3        
C        C      0.795600000000     0.484233333333     0.352750000000     0.3        
C        C      0.982075000000     0.523633333333     0.484900000000     0.3        
C        C      0.977825000000     0.517866666667     0.016600000000     0.3        
C        C      0.965950000000     0.549100000000     0.464550000000     0.3        
C        C      0.951875000000     0.534266666667     0.038850000000     0.3        
C        C      0.979625000000     0.596100000000     0.853650000000     0.3        
C        C      0.983575000000     0.564466666667     0.864150000000     0.3        
C        C      0.779975000000     0.586466666667     0.897750000000     0.3        
C        C      0.776625000000     0.618200000000     0.886550000000     0.3        
C        C      0.950425000000     0.605866666667     0.831300000000     0.3        
C        C      0.964950000000     0.531800000000     0.853250000000     0.3        
C        C      0.809125000000     0.575833333333     0.920600000000     0.3        
C        C      0.795600000000     0.650900000000     0.897250000000     0.3        
C        C      0.982075000000     0.356966666667     0.765100000000     0.3        
C        C      0.977825000000     0.351200000000     0.733400000000     0.3        
C        C      0.965950000000     0.382433333333     0.785450000000     0.3        
C        C      0.951875000000     0.367600000000     0.711150000000     0.3        
C        C      0.770375000000     0.570566666667     0.603650000000     0.3        
C        C      0.766425000000     0.602200000000     0.614150000000     0.3        
C        C      0.970025000000     0.580200000000     0.647750000000     0.3        
C        C      0.973375000000     0.548466666667     0.636550000000     0.3        
C        C      0.799575000000     0.560800000000     0.581300000000     0.3        
C        C      0.785050000000     0.634866666667     0.603250000000     0.3        
C        C      0.940875000000     0.590833333333     0.670600000000     0.3        
C        C      0.954400000000     0.515766666667     0.647250000000     0.3        
C        C      0.767925000000     0.476366666667     0.515100000000     0.3        
C        C      0.772175000000     0.482133333333     0.983400000000     0.3        
C        C      0.784050000000     0.450900000000     0.535450000000     0.3        
C        C      0.798125000000     0.465733333333     0.961150000000     0.3        
C        C      0.770375000000     0.403900000000     0.646350000000     0.3        
C        C      0.766425000000     0.435533333333     0.635850000000     0.3        
C        C      0.970025000000     0.413533333333     0.602250000000     0.3        
C        C      0.973375000000     0.381800000000     0.613450000000     0.3        
C        C      0.799575000000     0.394133333333     0.668700000000     0.3        
C        C      0.785050000000     0.468200000000     0.646750000000     0.3        
C        C      0.940875000000     0.424166666667     0.579400000000     0.3        
C        C      0.954400000000     0.349100000000     0.602750000000     0.3        
C        C      0.767925000000     0.643033333333     0.734900000000     0.3        
C        C      0.772175000000     0.648800000000     0.766600000000     0.3        
C        C      0.784050000000     0.617566666667     0.714550000000     0.3        
C        C      0.798125000000     0.632400000000     0.788850000000     0.3        
C        C      0.979625000000     0.429433333333     0.896350000000     0.3        
C        C      0.983575000000     0.397800000000     0.885850000000     0.3        
C        C      0.779975000000     0.419800000000     0.852250000000     0.3        
C        C      0.776625000000     0.451533333333     0.863450000000     0.3        
C        C      0.950425000000     0.439200000000     0.918700000000     0.3        
C        C      0.964950000000     0.365133333333     0.896750000000     0.3        
C        C      0.809125000000     0.409166666667     0.829400000000     0.3        
C        C      0.795600000000     0.484233333333     0.852750000000     0.3        
C        C      0.982075000000     0.523633333333     0.984900000000     0.3        
C        C      0.977825000000     0.517866666667     0.516600000000     0.3        
C        C      0.965950000000     0.549100000000     0.964550000000     0.3        
C        C      0.951875000000     0.534266666667     0.538850000000     0.3        
C        C      0.979625000000     0.929433333333     0.353650000000     0.3        
C        C      0.983575000000     0.897800000000     0.364150000000     0.3        
C        C      0.779975000000     0.919800000000     0.397750000000     0.3        
C        C      0.776625000000     0.951533333333     0.386550000000     0.3        
C        C      0.950425000000     0.939200000000     0.331300000000     0.3        
C        C      0.964950000000     0.865133333333     0.353250000000     0.3        
C        C      0.809125000000     0.909166666667     0.420600000000     0.3        
C        C      0.795600000000     0.984233333333     0.397250000000     0.3        
C        C      0.982075000000     0.690300000000     0.265100000000     0.3        
C        C      0.977825000000     0.684533333333     0.233400000000     0.3        
C        C      0.965950000000     0.715766666667     0.285450000000     0.3        
C        C      0.951875000000     0.700933333333     0.211150000000     0.3        
C        C      0.770375000000     0.903900000000     0.103650000000     0.3        
C        C      0.766425000000     0.935533333333     0.114150000000     0.3        
C        C      0.970025000000     0.913533333333     0.147750000000     0.3        
C        C      0.973375000000     0.881800000000     0.136550000000     0.3        
C        C      0.799575000000     0.894133333333     0.081300000000     0.3        
C        C      0.785050000000     0.968200000000     0.103250000000     0.3        
C        C      0.940875000000     0.924166666667     0.170600000000     0.3        
C        C      0.954400000000     0.849100000000     0.147250000000     0.3        
C        C      0.767925000000     0.809700000000     0.015100000000     0.3        
C        C      0.772175000000     0.815466666667     0.483400000000     0.3        
C        C      0.784050000000     0.784233333333     0.035450000000     0.3        
C        C      0.798125000000     0.799066666667     0.461150000000     0.3        
C        C      0.770375000000     0.737233333333     0.146350000000     0.3        
C        C      0.766425000000     0.768866666667     0.135850000000     0.3        
C        C      0.970025000000     0.746866666667     0.102250000000     0.3        
C        C      0.973375000000     0.715133333333     0.113450000000     0.3        
C        C      0.799575000000     0.727466666667     0.168700000000     0.3        
C        C      0.785050000000     0.801533333333     0.146750000000     0.3        
C        C      0.940875000000     0.757500000000     0.079400000000     0.3        
C        C      0.954400000000     0.682433333333     0.102750000000     0.3        
C        C      0.767925000000     0.976366666667     0.234900000000     0.3        
C        C      0.772175000000     0.982133333333     0.266600000000     0.3        
C        C      0.784050000000     0.950900000000     0.214550000000     0.3        
C        C      0.798125000000     0.965733333333     0.288850000000     0.3        
C        C      0.979625000000     0.762766666667     0.396350000000     0.3        
C        C      0.983575000000     0.731133333333     0.385850000000     0.3        
C        C      0.779975000000     0.753133333333     0.352250000000     0.3        
C        C      0.776625000000     0.784866666667     0.363450000000     0.3        
C        C      0.950425000000     0.772533333333     0.418700000000     0.3        
C        C      0.964950000000     0.698466666667     0.396750000000     0.3        
C        C      0.809125000000     0.742500000000     0.329400000000     0.3        
C        C      0.795600000000     0.817566666667     0.352750000000     0.3        
C        C      0.982075000000     0.856966666667     0.484900000000     0.3        
C        C      0.977825000000     0.851200000000     0.016600000000     0.3        
C        C      0.965950000000     0.882433333333     0.464550000000     0.3        
C        C      0.951875000000     0.867600000000     0.038850000000     0.3        
C        C      0.979625000000     0.929433333333     0.853650000000     0.3        
C        C      0.983575000000     0.897800000000     0.864150000000     0.3        
C        C      0.779975000000     0.919800000000     0.897750000000     0.3        
C        C      0.776625000000     0.951533333333     0.886550000000     0.3        
C        C      0.950425000000     0.939200000000     0.831300000000     0.3        
C        C      0.964950000000     0.865133333333     0.853250000000     0.3        
C        C      0.809125000000     0.909166666667     0.920600000000     0.3        
C        C      0.795600000000     0.984233333333     0.897250000000     0.3        
C        C      0.982075000000     0.690300000000     0.765100000000     0.3        
C        C      0.977825000000     0.684533333333     0.733400000000     0.3        
C        C      0.965950000000     0.715766666667     0.785450000000     0.3        
C        C      0.951875000000     0.700933333333     0.711150000000     0.3        
C        C      0.770375000000     0.903900000000     0.603650000000     0.3        
C        C      0.766425000000     0.935533333333     0.614150000000     0.3        
C        C      0.970025000000     0.913533333333     0.647750000000     0.3        
C        C      0.973375000000     0.881800000000     0.636550000000     0.3        
C        C      0.799575000000     0.894133333333     0.581300000000     0.3        
C        C      0.785050000000     0.968200000000     0.603250000000     0.3        
C        C      0.940875000000     0.924166666667     0.670600000000     0.3        
C        C      0.954400000000     0.849100000000     0.647250000000     0.3        
C        C      0.767925000000     0.809700000000     0.515100000000     0.3        
C        C      0.772175000000     0.815466666667     0.983400000000     0.3        
C        C      0.784050000000     0.784233333333     0.535450000000     0.3        
C        C      0.798125000000     0.799066666667     0.961150000000     0.3        
C        C      0.770375000000     0.737233333333     0.646350000000     0.3        
C        C      0.766425000000     0.768866666667     0.635850000000     0.3        
C        C      0.970025000000     0.746866666667     0.602250000000     0.3        
C        C      0.973375000000     0.715133333333     0.613450000000     0.3        
C        C      0.799575000000     0.727466666667     0.668700000000     0.3        
C        C      0.785050000000     0.801533333333     0.646750000000     0.3        
C        C      0.940875000000     0.757500000000     0.579400000000     0.3        
C        C      0.954400000000     0.682433333333     0.602750000000     0.3        
C        C      0.767925000000     0.976366666667     0.734900000000     0.3        
C        C      0.772175000000     0.982133333333     0.766600000000     0.3        
C        C      0.784050000000     0.950900000000     0.714550000000     0.3        
C        C      0.798125000000     0.965733333333     0.788850000000     0.3        
C        C      0.979625000000     0.762766666667     0.896350000000     0.3        
C        C      0.983575000000     0.731133333333     0.885850000000     0.3        
C        C      0.779975000000     0.753133333333     0.852250000000     0.3        
C        C      0.776625000000     0.784866666667     0.863450000000     0.3        
C        C      0.950425000000     0.772533333333     0.918700000000     0.3        
C        C      0.964950000000     0.698466666667     0.896750000000     0.3        
C        C      0.809125000000     0.742500000000     0.829400000000     0.3        
C        C      0.795600000000     0.817566666667     0.852750000000     0.3        
C        C      0.982075000000     0.856966666667     0.984900000000     0.3        
C        C      0.977825000000     0.851200000000     0.516600000000     0.3        
C        C      0.965950000000     0.882433333333     0.964550000000     0.3        
C        C      0.951875000000     0.867600000000     0.538850000000     0.3        
Yb       Yb     0.004425000000     0.007953333333     0.336890000000    -0.02       
Yb       Yb     0.113717500000     0.248646666667     0.304495000000    -0.02       
Yb       Yb     0.245575000000     0.158713333333     0.086890000000    -0.02       
Yb       Yb     0.136282500000     0.251353333333     0.054495000000    -0.02       
Yb       Yb     0.245575000000     0.325380000000     0.163110000000    -0.02       
Yb       Yb     0.136282500000     0.084686666667     0.195505000000    -0.02       
Yb       Yb     0.004425000000     0.174620000000     0.413110000000    -0.02       
Yb       Yb     0.113717500000     0.081980000000     0.445505000000    -0.02       
Yb       Yb     0.004425000000     0.007953333333     0.836890000000    -0.02       
Yb       Yb     0.113717500000     0.248646666667     0.804495000000    -0.02       
Yb       Yb     0.245575000000     0.158713333333     0.586890000000    -0.02       
Yb       Yb     0.136282500000     0.251353333333     0.554495000000    -0.02       
Yb       Yb     0.245575000000     0.325380000000     0.663110000000    -0.02       
Yb       Yb     0.136282500000     0.084686666667     0.695505000000    -0.02       
Yb       Yb     0.004425000000     0.174620000000     0.913110000000    -0.02       
Yb       Yb     0.113717500000     0.081980000000     0.945505000000    -0.02       
Yb       Yb     0.004425000000     0.341286666667     0.336890000000    -0.02       
Yb       Yb     0.113717500000     0.581980000000     0.304495000000    -0.02       
Yb       Yb     0.245575000000     0.492046666667     0.086890000000    -0.02       
Yb       Yb     0.136282500000     0.584686666667     0.054495000000    -0.02       
Yb       Yb     0.245575000000     0.658713333333     0.163110000000    -0.02       
Yb       Yb     0.136282500000     0.418020000000     0.195505000000    -0.02       
Yb       Yb     0.004425000000     0.507953333333     0.413110000000    -0.02       
Yb       Yb     0.113717500000     0.415313333333     0.445505000000    -0.02       
Yb       Yb     0.004425000000     0.341286666667     0.836890000000    -0.02       
Yb       Yb     0.113717500000     0.581980000000     0.804495000000    -0.02       
Yb       Yb     0.245575000000     0.492046666667     0.586890000000    -0.02       
Yb       Yb     0.136282500000     0.584686666667     0.554495000000    -0.02       
Yb       Yb     0.245575000000     0.658713333333     0.663110000000    -0.02       
Yb       Yb     0.136282500000     0.418020000000     0.695505000000    -0.02       
Yb       Yb     0.004425000000     0.507953333333     0.913110000000    -0.02       
Yb       Yb     0.113717500000     0.415313333333     0.945505000000    -0.02       
Yb       Yb     0.004425000000     0.674620000000     0.336890000000    -0.02       
Yb       Yb     0.113717500000     0.915313333333     0.304495000000    -0.02       
Yb       Yb     0.245575000000     0.825380000000     0.086890000000    -0.02       
Yb       Yb     0.136282500000     0.918020000000     0.054495000000    -0.02       
Yb       Yb     0.245575000000     0.992046666667     0.163110000000    -0.02       
Yb       Yb     0.136282500000     0.751353333333     0.195505000000    -0.02       
Yb       Yb     0.004425000000     0.841286666667     0.413110000000    -0.02       
Yb       Yb     0.113717500000     0.748646666667     0.445505000000    -0.02       
Yb       Yb     0.004425000000     0.674620000000     0.836890000000    -0.02       
Yb       Yb     0.113717500000     0.915313333333     0.804495000000    -0.02       
Yb       Yb     0.245575000000     0.825380000000     0.586890000000    -0.02       
Yb       Yb     0.136282500000     0.918020000000     0.554495000000    -0.02       
Yb       Yb     0.245575000000     0.992046666667     0.663110000000    -0.02       
Yb       Yb     0.136282500000     0.751353333333     0.695505000000    -0.02       
Yb       Yb     0.004425000000     0.841286666667     0.913110000000    -0.02       
Yb       Yb     0.113717500000     0.748646666667     0.945505000000    -0.02       
Yb       Yb     0.254425000000     0.007953333333     0.336890000000    -0.02       
Yb       Yb     0.363717500000     0.248646666667     0.304495000000    -0.02       
Yb       Yb     0.495575000000     0.158713333333     0.086890000000    -0.02       
Yb       Yb     0.386282500000     0.251353333333     0.054495000000    -0.02       
Yb       Yb     0.495575000000     0.325380000000     0.163110000000    -0.02       
Yb       Yb     0.386282500000     0.084686666667     0.195505000000    -0.02       
Yb       Yb     0.254425000000     0.174620000000     0.413110000000    -0.02       
Yb       Yb     0.363717500000     0.081980000000     0.445505000000    -0.02       
Yb       Yb     0.254425000000     0.007953333333     0.836890000000    -0.02       
Yb       Yb     0.363717500000     0.248646666667     0.804495000000    -0.02       
Yb       Yb     0.495575000000     0.158713333333     0.586890000000    -0.02       
Yb       Yb     0.386282500000     0.251353333333     0.554495000000    -0.02       
Yb       Yb     0.495575000000     0.325380000000     0.663110000000    -0.02       
Yb       Yb     0.386282500000     0.084686666667     0.695505000000    -0.02       
Yb       Yb     0.254425000000     0.174620000000     0.913110000000    -0.02       
Yb       Yb     0.363717500000     0.081980000000     0.945505000000    -0.02       
Yb       Yb     0.254425000000     0.341286666667     0.336890000000    -0.02       
Yb       Yb     0.363717500000     0.581980000000     0.304495000000    -0.02       
Yb       Yb     0.495575000000     0.492046666667     0.086890000000    -0.02       
Yb       Yb     0.386282500000     0.584686666667     0.054495000000    -0.02       
Yb       Yb     0.495575000000     0.658713333333     0.163110000000    -0.02       
Yb       Yb     0.386282500000     0.418020000000     0.195505000000    -0.02       
Yb       Yb     0.254425000000     0.507953333333     0.413110000000    -0.02       
Yb       Yb     0.363717500000     0.415313333333     0.445505000000    -0.02       
Yb       Yb     0.254425000000     0.341286666667     0.836890000000    -0.02       
Yb       Yb     0.363717500000     0.581980000000     0.804495000000    -0.02       
Yb       Yb     0.495575000000     0.492046666667     0.586890000000    -0.02       
Yb       Yb     0.386282500000     0.584686666667     0.554495000000    -0.02       
Yb       Yb     0.495575000000     0.658713333333     0.663110000000    -0.02       
Yb       Yb     0.386282500000     0.418020000000     0.695505000000    -0.02       
Yb       Yb     0.254425000000     0.507953333333     0.913110000000    -0.02       
Yb       Yb     0.363717500000     0.415313333333     0.945505000000    -0.02       
Yb       Yb     0.254425000000     0.674620000000     0.336890000000    -0.02       
Yb       Yb     0.363717500000     0.915313333333     0.304495000000    -0.02       
Yb       Yb     0.495575000000     0.825380000000     0.086890000000    -0.02       
Yb       Yb     0.386282500000     0.918020000000     0.054495000000    -0.02       
Yb       Yb     0.495575000000     0.992046666667     0.163110000000    -0.02       
Yb       Yb     0.386282500000     0.751353333333     0.195505000000    -0.02       
Yb       Yb     0.254425000000     0.841286666667     0.413110000000    -0.02       
Yb       Yb     0.363717500000     0.748646666667     0.445505000000    -0.02       
Yb       Yb     0.254425000000     0.674620000000     0.836890000000    -0.02       
Yb       Yb     0.363717500000     0.915313333333     0.804495000000    -0.02       
Yb       Yb     0.495575000000     0.825380000000     0.586890000000    -0.02       
Yb       Yb     0.386282500000     0.918020000000     0.554495000000    -0.02       
Yb       Yb     0.495575000000     0.992046666667     0.663110000000    -0.02       
Yb       Yb     0.386282500000     0.751353333333     0.695505000000    -0.02       
Yb       Yb     0.254425000000     0.841286666667     0.913110000000    -0.02       
Yb       Yb     0.363717500000     0.748646666667     0.945505000000    -0.02       
Yb       Yb     0.504425000000     0.007953333333     0.336890000000    -0.02       
Yb       Yb     0.613717500000     0.248646666667     0.304495000000    -0.02       
Yb       Yb     0.745575000000     0.158713333333     0.086890000000    -0.02       
Yb       Yb     0.636282500000     0.251353333333     0.054495000000    -0.02       
Yb       Yb     0.745575000000     0.325380000000     0.163110000000    -0.02       
Yb       Yb     0.636282500000     0.084686666667     0.195505000000    -0.02       
Yb       Yb     0.504425000000     0.174620000000     0.413110000000    -0.02       
Yb       Yb     0.613717500000     0.081980000000     0.445505000000    -0.02       
Yb       Yb     0.504425000000     0.007953333333     0.836890000000    -0.02       
Yb       Yb     0.613717500000     0.248646666667     0.804495000000    -0.02       
Yb       Yb     0.745575000000     0.158713333333     0.586890000000    -0.02       
Yb       Yb     0.636282500000     0.251353333333     0.554495000000    -0.02       
Yb       Yb     0.745575000000     0.325380000000     0.663110000000    -0.02       
Yb       Yb     0.636282500000     0.084686666667     0.695505000000    -0.02       
Yb       Yb     0.504425000000     0.174620000000     0.913110000000    -0.02       
Yb       Yb     0.613717500000     0.081980000000     0.945505000000    -0.02       
Yb       Yb     0.504425000000     0.341286666667     0.336890000000    -0.02       
Yb       Yb     0.613717500000     0.581980000000     0.304495000000    -0.02       
Yb       Yb     0.745575000000     0.492046666667     0.086890000000    -0.02       
Yb       Yb     0.636282500000     0.584686666667     0.054495000000    -0.02       
Yb       Yb     0.745575000000     0.658713333333     0.163110000000    -0.02       
Yb       Yb     0.636282500000     0.418020000000     0.195505000000    -0.02       
Yb       Yb     0.504425000000     0.507953333333     0.413110000000    -0.02       
Yb       Yb     0.613717500000     0.415313333333     0.445505000000    -0.02       
Yb       Yb     0.504425000000     0.341286666667     0.836890000000    -0.02       
Yb       Yb     0.613717500000     0.581980000000     0.804495000000    -0.02       
Yb       Yb     0.745575000000     0.492046666667     0.586890000000    -0.02       
Yb       Yb     0.636282500000     0.584686666667     0.554495000000    -0.02       
Yb       Yb     0.745575000000     0.658713333333     0.663110000000    -0.02       
Yb       Yb     0.636282500000     0.418020000000     0.695505000000    -0.02       
Yb       Yb     0.504425000000     0.507953333333     0.913110000000    -0.02       
Yb       Yb     0.613717500000     0.415313333333     0.945505000000    -0.02       
Yb       Yb     0.504425000000     0.674620000000     0.336890000000    -0.02       
Yb       Yb     0.613717500000     0.915313333333     0.304495000000    -0.02       
Yb       Yb     0.745575000000     0.825380000000     0.086890000000    -0.02       
Yb       Yb     0.636282500000     0.918020000000     0.054495000000    -0.02       
Yb       Yb     0.745575000000     0.992046666667     0.163110000000    -0.02       
Yb       Yb     0.636282500000     0.751353333333     0.195505000000    -0.02       
Yb       Yb     0.504425000000     0.841286666667     0.413110000000    -0.02       
Yb       Yb     0.613717500000     0.748646666667     0.445505000000    -0.02       
Yb       Yb     0.504425000000     0.674620000000     0.836890000000    -0.02       
Yb       Yb     0.613717500000     0.915313333333     0.804495000000    -0.02       
Yb       Yb     0.745575000000     0.825380000000     0.586890000000    -0.02       
Yb       Yb     0.636282500000     0.918020000000     0.554495000000    -0.02       
Yb       Yb     0.745575000000     0.992046666667     0.663110000000    -0.02       
Yb       Yb     0.636282500000     0.751353333333     0.695505000000    -0.02       
Yb       Yb     0.504425000000     0.841286666667     0.913110000000    -0.02       
Yb       Yb     0.613717500000     0.748646666667     0.945505000000    -0.02       
Yb       Yb     0.754425000000     0.007953333333     0.336890000000    -0.02       
Yb       Yb     0.863717500000     0.248646666667     0.304495000000    -0.02       
Yb       Yb     0.995575000000     0.158713333333     0.086890000000    -0.02       
Yb       Yb     0.886282500000     0.251353333333     0.054495000000    -0.02       
Yb       Yb     0.995575000000     0.325380000000     0.163110000000    -0.02       
Yb       Yb     0.886282500000     0.084686666667     0.195505000000    -0.02       
Yb       Yb     0.754425000000     0.174620000000     0.413110000000    -0.02       
Yb       Yb     0.863717500000     0.081980000000     0.445505000000    -0.02       
Yb       Yb     0.754425000000     0.007953333333     0.836890000000    -0.02       
Yb       Yb     0.863717500000     0.248646666667     0.804495000000    -0.02       
Yb       Yb     0.995575000000     0.158713333333     0.586890000000    -0.02       
Yb       Yb     0.886282500000     0.251353333333     0.554495000000    -0.02       
Yb       Yb     0.995575000000     0.325380000000     0.663110000000    -0.02       
Yb       Yb     0.886282500000     0.084686666667     0.695505000000    -0.02       
Yb       Yb     0.754425000000     0.174620000000     0.913110000000    -0.02       
Yb       Yb     0.863717500000     0.081980000000     0.945505000000    -0.02       
Yb       Yb     0.754425000000     0.341286666667     0.336890000000    -0.02       
Yb       Yb     0.863717500000     0.581980000000     0.304495000000    -0.02       
Yb       Yb     0.995575000000     0.492046666667     0.086890000000    -0.02       
Yb       Yb     0.886282500000     0.584686666667     0.054495000000    -0.02       
Yb       Yb     0.995575000000     0.658713333333     0.163110000000    -0.02       
Yb       Yb     0.886282500000     0.418020000000     0.195505000000    -0.02       
Yb       Yb     0.754425000000     0.507953333333     0.413110000000    -0.02       
Yb       Yb     0.863717500000     0.415313333333     0.445505000000    -0.02       
Yb       Yb     0.754425000000     0.341286666667     0.836890000000    -0.02       
Yb       Yb     0.863717500000     0.581980000000     0.804495000000    -0.02       
Yb       Yb     0.995575000000     0.492046666667     0.586890000000    -0.02       
Yb       Yb     0.886282500000     0.584686666667     0.554495000000    -0.02       
Yb       Yb     0.995575000000     0.658713333333     0.663110000000    -0.02       
Yb       Yb     0.886282500000     0.418020000000     0.695505000000    -0.02       
Yb       Yb     0.754425000000     0.507953333333     0.913110000000    -0.02       
Yb       Yb     0.863717500000     0.415313333333     0.945505000000    -0.02       
Yb       Yb     0.754425000000     0.674620000000     0.336890000000    -0.02       
Yb       Yb     0.863717500000     0.915313333333     0.304495000000    -0.02       
Yb       Yb     0.995575000000     0.825380000000     0.086890000000    -0.02       
Yb       Yb     0.886282500000     0.918020000000     0.054495000000    -0.02       
Yb       Yb     0.995575000000     0.992046666667     0.163110000000    -0.02       
Yb       Yb     0.886282500000     0.751353333333     0.195505000000    -0.02       
Yb       Yb     0.754425000000     0.841286666667     0.413110000000    -0.02       
Yb       Yb     0.863717500000     0.748646666667     0.445505000000    -0.02       
Yb       Yb     0.754425000000     0.674620000000     0.836890000000    -0.02       
Yb       Yb     0.863717500000     0.915313333333     0.804495000000    -0.02       
Yb       Yb     0.995575000000     0.825380000000     0.586890000000    -0.02       
Yb       Yb     0.886282500000     0.918020000000     0.554495000000    -0.02       
Yb       Yb     0.995575000000     0.992046666667     0.663110000000    -0.02       
Yb       Yb     0.886282500000     0.751353333333     0.695505000000    -0.02       
Yb       Yb     0.754425000000     0.841286666667     0.913110000000    -0.02       
Yb       Yb     0.863717500000     0.748646666667     0.945505000000    -0.02       
N        N      0.001450000000     0.288166666667     0.364600000000     0.297      
N        N      0.008475000000     0.227800000000     0.386700000000     0.297      
N        N      0.004425000000     0.005000000000     0.280150000000     0.297      
N        N      0.248550000000     0.211833333333     0.114600000000     0.297      
N        N      0.241525000000     0.272200000000     0.136700000000     0.297      
N        N      0.245575000000     0.161666666667     0.030150000000     0.297      
N        N      0.248550000000     0.045166666667     0.135400000000     0.297      
N        N      0.241525000000     0.105533333333     0.113300000000     0.297      
N        N      0.245575000000     0.328333333333     0.219850000000     0.297      
N        N      0.001450000000     0.121500000000     0.385400000000     0.297      
N        N      0.008475000000     0.061133333333     0.363300000000     0.297      
N        N      0.004425000000     0.171666666667     0.469850000000     0.297      
N        N      0.001450000000     0.288166666667     0.864600000000     0.297      
N        N      0.008475000000     0.227800000000     0.886700000000     0.297      
N        N      0.004425000000     0.005000000000     0.780150000000     0.297      
N        N      0.248550000000     0.211833333333     0.614600000000     0.297      
N        N      0.241525000000     0.272200000000     0.636700000000     0.297      
N        N      0.245575000000     0.161666666667     0.530150000000     0.297      
N        N      0.248550000000     0.045166666667     0.635400000000     0.297      
N        N      0.241525000000     0.105533333333     0.613300000000     0.297      
N        N      0.245575000000     0.328333333333     0.719850000000     0.297      
N        N      0.001450000000     0.121500000000     0.885400000000     0.297      
N        N      0.008475000000     0.061133333333     0.863300000000     0.297      
N        N      0.004425000000     0.171666666667     0.969850000000     0.297      
N        N      0.001450000000     0.621500000000     0.364600000000     0.297      
N        N      0.008475000000     0.561133333333     0.386700000000     0.297      
N        N      0.004425000000     0.338333333333     0.280150000000     0.297      
N        N      0.248550000000     0.545166666667     0.114600000000     0.297      
N        N      0.241525000000     0.605533333333     0.136700000000     0.297      
N        N      0.245575000000     0.495000000000     0.030150000000     0.297      
N        N      0.248550000000     0.378500000000     0.135400000000     0.297      
N        N      0.241525000000     0.438866666667     0.113300000000     0.297      
N        N      0.245575000000     0.661666666667     0.219850000000     0.297      
N        N      0.001450000000     0.454833333333     0.385400000000     0.297      
N        N      0.008475000000     0.394466666667     0.363300000000     0.297      
N        N      0.004425000000     0.505000000000     0.469850000000     0.297      
N        N      0.001450000000     0.621500000000     0.864600000000     0.297      
N        N      0.008475000000     0.561133333333     0.886700000000     0.297      
N        N      0.004425000000     0.338333333333     0.780150000000     0.297      
N        N      0.248550000000     0.545166666667     0.614600000000     0.297      
N        N      0.241525000000     0.605533333333     0.636700000000     0.297      
N        N      0.245575000000     0.495000000000     0.530150000000     0.297      
N        N      0.248550000000     0.378500000000     0.635400000000     0.297      
N        N      0.241525000000     0.438866666667     0.613300000000     0.297      
N        N      0.245575000000     0.661666666667     0.719850000000     0.297      
N        N      0.001450000000     0.454833333333     0.885400000000     0.297      
N        N      0.008475000000     0.394466666667     0.863300000000     0.297      
N        N      0.004425000000     0.505000000000     0.969850000000     0.297      
N        N      0.001450000000     0.954833333333     0.364600000000     0.297      
N        N      0.008475000000     0.894466666667     0.386700000000     0.297      
N        N      0.004425000000     0.671666666667     0.280150000000     0.297      
N        N      0.248550000000     0.878500000000     0.114600000000     0.297      
N        N      0.241525000000     0.938866666667     0.136700000000     0.297      
N        N      0.245575000000     0.828333333333     0.030150000000     0.297      
N        N      0.248550000000     0.711833333333     0.135400000000     0.297      
N        N      0.241525000000     0.772200000000     0.113300000000     0.297      
N        N      0.245575000000     0.995000000000     0.219850000000     0.297      
N        N      0.001450000000     0.788166666667     0.385400000000     0.297      
N        N      0.008475000000     0.727800000000     0.363300000000     0.297      
N        N      0.004425000000     0.838333333333     0.469850000000     0.297      
N        N      0.001450000000     0.954833333333     0.864600000000     0.297      
N        N      0.008475000000     0.894466666667     0.886700000000     0.297      
N        N      0.004425000000     0.671666666667     0.780150000000     0.297      
N        N      0.248550000000     0.878500000000     0.614600000000     0.297      
N        N      0.241525000000     0.938866666667     0.636700000000     0.297      
N        N      0.245575000000     0.828333333333     0.530150000000     0.297      
N        N      0.248550000000     0.711833333333     0.635400000000     0.297      
N        N      0.241525000000     0.772200000000     0.613300000000     0.297      
N        N      0.245575000000     0.995000000000     0.719850000000     0.297      
N        N      0.001450000000     0.788166666667     0.885400000000     0.297      
N        N      0.008475000000     0.727800000000     0.863300000000     0.297      
N        N      0.004425000000     0.838333333333     0.969850000000     0.297      
N        N      0.251450000000     0.288166666667     0.364600000000     0.297      
N        N      0.258475000000     0.227800000000     0.386700000000     0.297      
N        N      0.254425000000     0.005000000000     0.280150000000     0.297      
N        N      0.498550000000     0.211833333333     0.114600000000     0.297      
N        N      0.491525000000     0.272200000000     0.136700000000     0.297      
N        N      0.495575000000     0.161666666667     0.030150000000     0.297      
N        N      0.498550000000     0.045166666667     0.135400000000     0.297      
N        N      0.491525000000     0.105533333333     0.113300000000     0.297      
N        N      0.495575000000     0.328333333333     0.219850000000     0.297      
N        N      0.251450000000     0.121500000000     0.385400000000     0.297      
N        N      0.258475000000     0.061133333333     0.363300000000     0.297      
N        N      0.254425000000     0.171666666667     0.469850000000     0.297      
N        N      0.251450000000     0.288166666667     0.864600000000     0.297      
N        N      0.258475000000     0.227800000000     0.886700000000     0.297      
N        N      0.254425000000     0.005000000000     0.780150000000     0.297      
N        N      0.498550000000     0.211833333333     0.614600000000     0.297      
N        N      0.491525000000     0.272200000000     0.636700000000     0.297      
N        N      0.495575000000     0.161666666667     0.530150000000     0.297      
N        N      0.498550000000     0.045166666667     0.635400000000     0.297      
N        N      0.491525000000     0.105533333333     0.613300000000     0.297      
N        N      0.495575000000     0.328333333333     0.719850000000     0.297      
N        N      0.251450000000     0.121500000000     0.885400000000     0.297      
N        N      0.258475000000     0.061133333333     0.863300000000     0.297      
N        N      0.254425000000     0.171666666667     0.969850000000     0.297      
N        N      0.251450000000     0.621500000000     0.364600000000     0.297      
N        N      0.258475000000     0.561133333333     0.386700000000     0.297      
N        N      0.254425000000     0.338333333333     0.280150000000     0.297      
N        N      0.498550000000     0.545166666667     0.114600000000     0.297      
N        N      0.491525000000     0.605533333333     0.136700000000     0.297      
N        N      0.495575000000     0.495000000000     0.030150000000     0.297      
N        N      0.498550000000     0.378500000000     0.135400000000     0.297      
N        N      0.491525000000     0.438866666667     0.113300000000     0.297      
N        N      0.495575000000     0.661666666667     0.219850000000     0.297      
N        N      0.251450000000     0.454833333333     0.385400000000     0.297      
N        N      0.258475000000     0.394466666667     0.363300000000     0.297      
N        N      0.254425000000     0.505000000000     0.469850000000     0.297      
N        N      0.251450000000     0.621500000000     0.864600000000     0.297      
N        N      0.258475000000     0.561133333333     0.886700000000     0.297      
N        N      0.254425000000     0.338333333333     0.780150000000     0.297      
N        N      0.498550000000     0.545166666667     0.614600000000     0.297      
N        N      0.491525000000     0.605533333333     0.636700000000     0.297      
N        N      0.495575000000     0.495000000000     0.530150000000     0.297      
N        N      0.498550000000     0.378500000000     0.635400000000     0.297      
N        N      0.491525000000     0.438866666667     0.613300000000     0.297      
N        N      0.495575000000     0.661666666667     0.719850000000     0.297      
N        N      0.251450000000     0.454833333333     0.885400000000     0.297      
N        N      0.258475000000     0.394466666667     0.863300000000     0.297      
N        N      0.254425000000     0.505000000000     0.969850000000     0.297      
N        N      0.251450000000     0.954833333333     0.364600000000     0.297      
N        N      0.258475000000     0.894466666667     0.386700000000     0.297      
N        N      0.254425000000     0.671666666667     0.280150000000     0.297      
N        N      0.498550000000     0.878500000000     0.114600000000     0.297      
N        N      0.491525000000     0.938866666667     0.136700000000     0.297      
N        N      0.495575000000     0.828333333333     0.030150000000     0.297      
N        N      0.498550000000     0.711833333333     0.135400000000     0.297      
N        N      0.491525000000     0.772200000000     0.113300000000     0.297      
N        N      0.495575000000     0.995000000000     0.219850000000     0.297      
N        N      0.251450000000     0.788166666667     0.385400000000     0.297      
N        N      0.258475000000     0.727800000000     0.363300000000     0.297      
N        N      0.254425000000     0.838333333333     0.469850000000     0.297      
N        N      0.251450000000     0.954833333333     0.864600000000     0.297      
N        N      0.258475000000     0.894466666667     0.886700000000     0.297      
N        N      0.254425000000     0.671666666667     0.780150000000     0.297      
N        N      0.498550000000     0.878500000000     0.614600000000     0.297      
N        N      0.491525000000     0.938866666667     0.636700000000     0.297      
N        N      0.495575000000     0.828333333333     0.530150000000     0.297      
N        N      0.498550000000     0.711833333333     0.635400000000     0.297      
N        N      0.491525000000     0.772200000000     0.613300000000     0.297      
N        N      0.495575000000     0.995000000000     0.719850000000     0.297      
N        N      0.251450000000     0.788166666667     0.885400000000     0.297      
N        N      0.258475000000     0.727800000000     0.863300000000     0.297      
N        N      0.254425000000     0.838333333333     0.969850000000     0.297      
N        N      0.501450000000     0.288166666667     0.364600000000     0.297      
N        N      0.508475000000     0.227800000000     0.386700000000     0.297      
N        N      0.504425000000     0.005000000000     0.280150000000     0.297      
N        N      0.748550000000     0.211833333333     0.114600000000     0.297      
N        N      0.741525000000     0.272200000000     0.136700000000     0.297      
N        N      0.745575000000     0.161666666667     0.030150000000     0.297      
N        N      0.748550000000     0.045166666667     0.135400000000     0.297      
N        N      0.741525000000     0.105533333333     0.113300000000     0.297      
N        N      0.745575000000     0.328333333333     0.219850000000     0.297      
N        N      0.501450000000     0.121500000000     0.385400000000     0.297      
N        N      0.508475000000     0.061133333333     0.363300000000     0.297      
N        N      0.504425000000     0.171666666667     0.469850000000     0.297      
N        N      0.501450000000     0.288166666667     0.864600000000     0.297      
N        N      0.508475000000     0.227800000000     0.886700000000     0.297      
N        N      0.504425000000     0.005000000000     0.780150000000     0.297      
N        N      0.748550000000     0.211833333333     0.614600000000     0.297      
N        N      0.741525000000     0.272200000000     0.636700000000     0.297      
N        N      0.745575000000     0.161666666667     0.530150000000     0.297      
N        N      0.748550000000     0.045166666667     0.635400000000     0.297      
N        N      0.741525000000     0.105533333333     0.613300000000     0.297      
N        N      0.745575000000     0.328333333333     0.719850000000     0.297      
N        N      0.501450000000     0.121500000000     0.885400000000     0.297      
N        N      0.508475000000     0.061133333333     0.863300000000     0.297      
N        N      0.504425000000     0.171666666667     0.969850000000     0.297      
N        N      0.501450000000     0.621500000000     0.364600000000     0.297      
N        N      0.508475000000     0.561133333333     0.386700000000     0.297      
N        N      0.504425000000     0.338333333333     0.280150000000     0.297      
N        N      0.748550000000     0.545166666667     0.114600000000     0.297      
N        N      0.741525000000     0.605533333333     0.136700000000     0.297      
N        N      0.745575000000     0.495000000000     0.030150000000     0.297      
N        N      0.748550000000     0.378500000000     0.135400000000     0.297      
N        N      0.741525000000     0.438866666667     0.113300000000     0.297      
N        N      0.745575000000     0.661666666667     0.219850000000     0.297      
N        N      0.501450000000     0.454833333333     0.385400000000     0.297      
N        N      0.508475000000     0.394466666667     0.363300000000     0.297      
N        N      0.504425000000     0.505000000000     0.469850000000     0.297      
N        N      0.501450000000     0.621500000000     0.864600000000     0.297      
N        N      0.508475000000     0.561133333333     0.886700000000     0.297      
N        N      0.504425000000     0.338333333333     0.780150000000     0.297      
N        N      0.748550000000     0.545166666667     0.614600000000     0.297      
N        N      0.741525000000     0.605533333333     0.636700000000     0.297      
N        N      0.745575000000     0.495000000000     0.530150000000     0.297      
N        N      0.748550000000     0.378500000000     0.635400000000     0.297      
N        N      0.741525000000     0.438866666667     0.613300000000     0.297      
N        N      0.745575000000     0.661666666667     0.719850000000     0.297      
N        N      0.501450000000     0.454833333333     0.885400000000     0.297      
N        N      0.508475000000     0.394466666667     0.863300000000     0.297      
N        N      0.504425000000     0.505000000000     0.969850000000     0.297      
N        N      0.501450000000     0.954833333333     0.364600000000     0.297      
N        N      0.508475000000     0.894466666667     0.386700000000     0.297      
N        N      0.504425000000     0.671666666667     0.280150000000     0.297      
N        N      0.748550000000     0.878500000000     0.114600000000     0.297      
N        N      0.741525000000     0.938866666667     0.136700000000     0.297      
N        N      0.745575000000     0.828333333333     0.030150000000     0.297      
N        N      0.748550000000     0.711833333333     0.135400000000     0.297      
N        N      0.741525000000     0.772200000000     0.113300000000     0.297      
N        N      0.745575000000     0.995000000000     0.219850000000     0.297      
N        N      0.501450000000     0.788166666667     0.385400000000     0.297      
N        N      0.508475000000     0.727800000000     0.363300000000     0.297      
N        N      0.504425000000     0.838333333333     0.469850000000     0.297      
N        N      0.501450000000     0.954833333333     0.864600000000     0.297      
N        N      0.508475000000     0.894466666667     0.886700000000     0.297      
N        N      0.504425000000     0.671666666667     0.780150000000     0.297      
N        N      0.748550000000     0.878500000000     0.614600000000     0.297      
N        N      0.741525000000     0.938866666667     0.636700000000     0.297      
N        N      0.745575000000     0.828333333333     0.530150000000     0.297      
N        N      0.748550000000     0.711833333333     0.635400000000     0.297      
N        N      0.741525000000     0.772200000000     0.613300000000     0.297      
N        N      0.745575000000     0.995000000000     0.719850000000     0.297      
N        N      0.501450000000     0.788166666667     0.885400000000     0.297      
N        N      0.508475000000     0.727800000000     0.863300000000     0.297      
N        N      0.504425000000     0.838333333333     0.969850000000     0.297      
N        N      0.751450000000     0.288166666667     0.364600000000     0.297      
N        N      0.758475000000     0.227800000000     0.386700000000     0.297      
N        N      0.754425000000     0.005000000000     0.280150000000     0.297      
N        N      0.998550000000     0.211833333333     0.114600000000     0.297      
N        N      0.991525000000     0.272200000000     0.136700000000     0.297      
N        N      0.995575000000     0.161666666667     0.030150000000     0.297      
N        N      0.998550000000     0.045166666667     0.135400000000     0.297      
N        N      0.991525000000     0.105533333333     0.113300000000     0.297      
N        N      0.995575000000     0.328333333333     0.219850000000     0.297      
N        N      0.751450000000     0.121500000000     0.385400000000     0.297      
N        N      0.758475000000     0.061133333333     0.363300000000     0.297      
N        N      0.754425000000     0.171666666667     0.469850000000     0.297      
N        N      0.751450000000     0.288166666667     0.864600000000     0.297      
N        N      0.758475000000     0.227800000000     0.886700000000     0.297      
N        N      0.754425000000     0.005000000000     0.780150000000     0.297      
N        N      0.998550000000     0.211833333333     0.614600000000     0.297      
N        N      0.991525000000     0.272200000000     0.636700000000     0.297      
N        N      0.995575000000     0.161666666667     0.530150000000     0.297      
N        N      0.998550000000     0.045166666667     0.635400000000     0.297      
N        N      0.991525000000     0.105533333333     0.613300000000     0.297      
N        N      0.995575000000     0.328333333333     0.719850000000     0.297      
N        N      0.751450000000     0.121500000000     0.885400000000     0.297      
N        N      0.758475000000     0.061133333333     0.863300000000     0.297      
N        N      0.754425000000     0.171666666667     0.969850000000     0.297      
N        N      0.751450000000     0.621500000000     0.364600000000     0.297      
N        N      0.758475000000     0.561133333333     0.386700000000     0.297      
N        N      0.754425000000     0.338333333333     0.280150000000     0.297      
N        N      0.998550000000     0.545166666667     0.114600000000     0.297      
N        N      0.991525000000     0.605533333333     0.136700000000     0.297      
N        N      0.995575000000     0.495000000000     0.030150000000     0.297      
N        N      0.998550000000     0.378500000000     0.135400000000     0.297      
N        N      0.991525000000     0.438866666667     0.113300000000     0.297      
N        N      0.995575000000     0.661666666667     0.219850000000     0.297      
N        N      0.751450000000     0.454833333333     0.385400000000     0.297      
N        N      0.758475000000     0.394466666667     0.363300000000     0.297      
N        N      0.754425000000     0.505000000000     0.469850000000     0.297      
N        N      0.751450000000     0.621500000000     0.864600000000     0.297      
N        N      0.758475000000     0.561133333333     0.886700000000     0.297      
N        N      0.754425000000     0.338333333333     0.780150000000     0.297      
N        N      0.998550000000     0.545166666667     0.614600000000     0.297      
N        N      0.991525000000     0.605533333333     0.636700000000     0.297      
N        N      0.995575000000     0.495000000000     0.530150000000     0.297      
N        N      0.998550000000     0.378500000000     0.635400000000     0.297      
N        N      0.991525000000     0.438866666667     0.613300000000     0.297      
N        N      0.995575000000     0.661666666667     0.719850000000     0.297      
N        N      0.751450000000     0.454833333333     0.885400000000     0.297      
N        N      0.758475000000     0.394466666667     0.863300000000     0.297      
N        N      0.754425000000     0.505000000000     0.969850000000     0.297      
N        N      0.751450000000     0.954833333333     0.364600000000     0.297      
N        N      0.758475000000     0.894466666667     0.386700000000     0.297      
N        N      0.754425000000     0.671666666667     0.280150000000     0.297      
N        N      0.998550000000     0.878500000000     0.114600000000     0.297      
N        N      0.991525000000     0.938866666667     0.136700000000     0.297      
N        N      0.995575000000     0.828333333333     0.030150000000     0.297      
N        N      0.998550000000     0.711833333333     0.135400000000     0.297      
N        N      0.991525000000     0.772200000000     0.113300000000     0.297      
N        N      0.995575000000     0.995000000000     0.219850000000     0.297      
N        N      0.751450000000     0.788166666667     0.385400000000     0.297      
N        N      0.758475000000     0.727800000000     0.363300000000     0.297      
N        N      0.754425000000     0.838333333333     0.469850000000     0.297      
N        N      0.751450000000     0.954833333333     0.864600000000     0.297      
N        N      0.758475000000     0.894466666667     0.886700000000     0.297      
N        N      0.754425000000     0.671666666667     0.780150000000     0.297      
N        N      0.998550000000     0.878500000000     0.614600000000     0.297      
N        N      0.991525000000     0.938866666667     0.636700000000     0.297      
N        N      0.995575000000     0.828333333333     0.530150000000     0.297      
N        N      0.998550000000     0.711833333333     0.635400000000     0.297      
N        N      0.991525000000     0.772200000000     0.613300000000     0.297      
N        N      0.995575000000     0.995000000000     0.719850000000     0.297      
N        N      0.751450000000     0.788166666667     0.885400000000     0.297      
N        N      0.758475000000     0.727800000000     0.863300000000     0.297      
N        N      0.754425000000     0.838333333333     0.969850000000     0.297      
O        O      0.207825000000     0.301133333333     0.319550000000     0.354      
O        O      0.172050000000     0.253533333333     0.327100000000     0.354      
O        O      0.206450000000     0.194266666667     0.326350000000     0.354      
O        O      0.211925000000     0.176700000000     0.374100000000     0.354      
O        O      0.050550000000     0.213333333333     0.431000000000     0.354      
O        O      0.088325000000     0.260066666667     0.425000000000     0.354      
O        O      0.053450000000     0.321633333333     0.424100000000     0.354      
O        O      0.049025000000     0.005866666667     0.376200000000     0.354      
O        O      0.212875000000     0.039866666667     0.313100000000     0.354      
O        O      0.209550000000     0.076000000000     0.275050000000     0.354      
O        O      0.179275000000     0.052900000000     0.220500000000     0.354      
O        O      0.206000000000     0.025966666667     0.183750000000     0.354      
O        O      0.042175000000     0.198866666667     0.069550000000     0.354      
O        O      0.077950000000     0.246466666667     0.077100000000     0.354      
O        O      0.043550000000     0.305733333333     0.076350000000     0.354      
O        O      0.038075000000     0.323300000000     0.124100000000     0.354      
O        O      0.199450000000     0.286666666667     0.181000000000     0.354      
O        O      0.161675000000     0.239933333333     0.175000000000     0.354      
O        O      0.196550000000     0.178366666667     0.174100000000     0.354      
O        O      0.200975000000     0.160800000000     0.126200000000     0.354      
O        O      0.037125000000     0.126800000000     0.063100000000     0.354      
O        O      0.040450000000     0.090666666667     0.025050000000     0.354      
O        O      0.070725000000     0.113766666667     0.470500000000     0.354      
O        O      0.044000000000     0.140700000000     0.433750000000     0.354      
O        O      0.042175000000     0.032200000000     0.180450000000     0.354      
O        O      0.077950000000     0.079800000000     0.172900000000     0.354      
O        O      0.043550000000     0.139066666667     0.173650000000     0.354      
O        O      0.038075000000     0.156633333333     0.125900000000     0.354      
O        O      0.199450000000     0.120000000000     0.069000000000     0.354      
O        O      0.161675000000     0.073266666667     0.075000000000     0.354      
O        O      0.196550000000     0.011700000000     0.075900000000     0.354      
O        O      0.200975000000     0.327466666667     0.123800000000     0.354      
O        O      0.037125000000     0.293466666667     0.186900000000     0.354      
O        O      0.040450000000     0.257333333333     0.224950000000     0.354      
O        O      0.070725000000     0.280433333333     0.279500000000     0.354      
O        O      0.044000000000     0.307366666667     0.316250000000     0.354      
O        O      0.207825000000     0.134466666667     0.430450000000     0.354      
O        O      0.172050000000     0.086866666667     0.422900000000     0.354      
O        O      0.206450000000     0.027600000000     0.423650000000     0.354      
O        O      0.211925000000     0.010033333333     0.375900000000     0.354      
O        O      0.050550000000     0.046666666667     0.319000000000     0.354      
O        O      0.088325000000     0.093400000000     0.325000000000     0.354      
O        O      0.053450000000     0.154966666667     0.325900000000     0.354      
O        O      0.049025000000     0.172533333333     0.373800000000     0.354      
O        O      0.212875000000     0.206533333333     0.436900000000     0.354      
O        O      0.209550000000     0.242666666667     0.474950000000     0.354      
O        O      0.179275000000     0.219566666667     0.029500000000     0.354      
O        O      0.206000000000     0.192633333333     0.066250000000     0.354      
O        O      0.207825000000     0.301133333333     0.819550000000     0.354      
O        O      0.172050000000     0.253533333333     0.827100000000     0.354      
O        O      0.206450000000     0.194266666667     0.826350000000     0.354      
O        O      0.211925000000     0.176700000000     0.874100000000     0.354      
O        O      0.050550000000     0.213333333333     0.931000000000     0.354      
O        O      0.088325000000     0.260066666667     0.925000000000     0.354      
O        O      0.053450000000     0.321633333333     0.924100000000     0.354      
O        O      0.049025000000     0.005866666667     0.876200000000     0.354      
O        O      0.212875000000     0.039866666667     0.813100000000     0.354      
O        O      0.209550000000     0.076000000000     0.775050000000     0.354      
O        O      0.179275000000     0.052900000000     0.720500000000     0.354      
O        O      0.206000000000     0.025966666667     0.683750000000     0.354      
O        O      0.042175000000     0.198866666667     0.569550000000     0.354      
O        O      0.077950000000     0.246466666667     0.577100000000     0.354      
O        O      0.043550000000     0.305733333333     0.576350000000     0.354      
O        O      0.038075000000     0.323300000000     0.624100000000     0.354      
O        O      0.199450000000     0.286666666667     0.681000000000     0.354      
O        O      0.161675000000     0.239933333333     0.675000000000     0.354      
O        O      0.196550000000     0.178366666667     0.674100000000     0.354      
O        O      0.200975000000     0.160800000000     0.626200000000     0.354      
O        O      0.037125000000     0.126800000000     0.563100000000     0.354      
O        O      0.040450000000     0.090666666667     0.525050000000     0.354      
O        O      0.070725000000     0.113766666667     0.970500000000     0.354      
O        O      0.044000000000     0.140700000000     0.933750000000     0.354      
O        O      0.042175000000     0.032200000000     0.680450000000     0.354      
O        O      0.077950000000     0.079800000000     0.672900000000     0.354      
O        O      0.043550000000     0.139066666667     0.673650000000     0.354      
O        O      0.038075000000     0.156633333333     0.625900000000     0.354      
O        O      0.199450000000     0.120000000000     0.569000000000     0.354      
O        O      0.161675000000     0.073266666667     0.575000000000     0.354      
O        O      0.196550000000     0.011700000000     0.575900000000     0.354      
O        O      0.200975000000     0.327466666667     0.623800000000     0.354      
O        O      0.037125000000     0.293466666667     0.686900000000     0.354      
O        O      0.040450000000     0.257333333333     0.724950000000     0.354      
O        O      0.070725000000     0.280433333333     0.779500000000     0.354      
O        O      0.044000000000     0.307366666667     0.816250000000     0.354      
O        O      0.207825000000     0.134466666667     0.930450000000     0.354      
O        O      0.172050000000     0.086866666667     0.922900000000     0.354      
O        O      0.206450000000     0.027600000000     0.923650000000     0.354      
O        O      0.211925000000     0.010033333333     0.875900000000     0.354      
O        O      0.050550000000     0.046666666667     0.819000000000     0.354      
O        O      0.088325000000     0.093400000000     0.825000000000     0.354      
O        O      0.053450000000     0.154966666667     0.825900000000     0.354      
O        O      0.049025000000     0.172533333333     0.873800000000     0.354      
O        O      0.212875000000     0.206533333333     0.936900000000     0.354      
O        O      0.209550000000     0.242666666667     0.974950000000     0.354      
O        O      0.179275000000     0.219566666667     0.529500000000     0.354      
O        O      0.206000000000     0.192633333333     0.566250000000     0.354      
O        O      0.207825000000     0.634466666667     0.319550000000     0.354      
O        O      0.172050000000     0.586866666667     0.327100000000     0.354      
O        O      0.206450000000     0.527600000000     0.326350000000     0.354      
O        O      0.211925000000     0.510033333333     0.374100000000     0.354      
O        O      0.050550000000     0.546666666667     0.431000000000     0.354      
O        O      0.088325000000     0.593400000000     0.425000000000     0.354      
O        O      0.053450000000     0.654966666667     0.424100000000     0.354      
O        O      0.049025000000     0.339200000000     0.376200000000     0.354      
O        O      0.212875000000     0.373200000000     0.313100000000     0.354      
O        O      0.209550000000     0.409333333333     0.275050000000     0.354      
O        O      0.179275000000     0.386233333333     0.220500000000     0.354      
O        O      0.206000000000     0.359300000000     0.183750000000     0.354      
O        O      0.042175000000     0.532200000000     0.069550000000     0.354      
O        O      0.077950000000     0.579800000000     0.077100000000     0.354      
O        O      0.043550000000     0.639066666667     0.076350000000     0.354      
O        O      0.038075000000     0.656633333333     0.124100000000     0.354      
O        O      0.199450000000     0.620000000000     0.181000000000     0.354      
O        O      0.161675000000     0.573266666667     0.175000000000     0.354      
O        O      0.196550000000     0.511700000000     0.174100000000     0.354      
O        O      0.200975000000     0.494133333333     0.126200000000     0.354      
O        O      0.037125000000     0.460133333333     0.063100000000     0.354      
O        O      0.040450000000     0.424000000000     0.025050000000     0.354      
O        O      0.070725000000     0.447100000000     0.470500000000     0.354      
O        O      0.044000000000     0.474033333333     0.433750000000     0.354      
O        O      0.042175000000     0.365533333333     0.180450000000     0.354      
O        O      0.077950000000     0.413133333333     0.172900000000     0.354      
O        O      0.043550000000     0.472400000000     0.173650000000     0.354      
O        O      0.038075000000     0.489966666667     0.125900000000     0.354      
O        O      0.199450000000     0.453333333333     0.069000000000     0.354      
O        O      0.161675000000     0.406600000000     0.075000000000     0.354      
O        O      0.196550000000     0.345033333333     0.075900000000     0.354      
O        O      0.200975000000     0.660800000000     0.123800000000     0.354      
O        O      0.037125000000     0.626800000000     0.186900000000     0.354      
O        O      0.040450000000     0.590666666667     0.224950000000     0.354      
O        O      0.070725000000     0.613766666667     0.279500000000     0.354      
O        O      0.044000000000     0.640700000000     0.316250000000     0.354      
O        O      0.207825000000     0.467800000000     0.430450000000     0.354      
O        O      0.172050000000     0.420200000000     0.422900000000     0.354      
O        O      0.206450000000     0.360933333333     0.423650000000     0.354      
O        O      0.211925000000     0.343366666667     0.375900000000     0.354      
O        O      0.050550000000     0.380000000000     0.319000000000     0.354      
O        O      0.088325000000     0.426733333333     0.325000000000     0.354      
O        O      0.053450000000     0.488300000000     0.325900000000     0.354      
O        O      0.049025000000     0.505866666667     0.373800000000     0.354      
O        O      0.212875000000     0.539866666667     0.436900000000     0.354      
O        O      0.209550000000     0.576000000000     0.474950000000     0.354      
O        O      0.179275000000     0.552900000000     0.029500000000     0.354      
O        O      0.206000000000     0.525966666667     0.066250000000     0.354      
O        O      0.207825000000     0.634466666667     0.819550000000     0.354      
O        O      0.172050000000     0.586866666667     0.827100000000     0.354      
O        O      0.206450000000     0.527600000000     0.826350000000     0.354      
O        O      0.211925000000     0.510033333333     0.874100000000     0.354      
O        O      0.050550000000     0.546666666667     0.931000000000     0.354      
O        O      0.088325000000     0.593400000000     0.925000000000     0.354      
O        O      0.053450000000     0.654966666667     0.924100000000     0.354      
O        O      0.049025000000     0.339200000000     0.876200000000     0.354      
O        O      0.212875000000     0.373200000000     0.813100000000     0.354      
O        O      0.209550000000     0.409333333333     0.775050000000     0.354      
O        O      0.179275000000     0.386233333333     0.720500000000     0.354      
O        O      0.206000000000     0.359300000000     0.683750000000     0.354      
O        O      0.042175000000     0.532200000000     0.569550000000     0.354      
O        O      0.077950000000     0.579800000000     0.577100000000     0.354      
O        O      0.043550000000     0.639066666667     0.576350000000     0.354      
O        O      0.038075000000     0.656633333333     0.624100000000     0.354      
O        O      0.199450000000     0.620000000000     0.681000000000     0.354      
O        O      0.161675000000     0.573266666667     0.675000000000     0.354      
O        O      0.196550000000     0.511700000000     0.674100000000     0.354      
O        O      0.200975000000     0.494133333333     0.626200000000     0.354      
O        O      0.037125000000     0.460133333333     0.563100000000     0.354      
O        O      0.040450000000     0.424000000000     0.525050000000     0.354      
O        O      0.070725000000     0.447100000000     0.970500000000     0.354      
O        O      0.044000000000     0.474033333333     0.933750000000     0.354      
O        O      0.042175000000     0.365533333333     0.680450000000     0.354      
O        O      0.077950000000     0.413133333333     0.672900000000     0.354      
O        O      0.043550000000     0.472400000000     0.673650000000     0.354      
O        O      0.038075000000     0.489966666667     0.625900000000     0.354      
O        O      0.199450000000     0.453333333333     0.569000000000     0.354      
O        O      0.161675000000     0.406600000000     0.575000000000     0.354      
O        O      0.196550000000     0.345033333333     0.575900000000     0.354      
O        O      0.200975000000     0.660800000000     0.623800000000     0.354      
O        O      0.037125000000     0.626800000000     0.686900000000     0.354      
O        O      0.040450000000     0.590666666667     0.724950000000     0.354      
O        O      0.070725000000     0.613766666667     0.779500000000     0.354      
O        O      0.044000000000     0.640700000000     0.816250000000     0.354      
O        O      0.207825000000     0.467800000000     0.930450000000     0.354      
O        O      0.172050000000     0.420200000000     0.922900000000     0.354      
O        O      0.206450000000     0.360933333333     0.923650000000     0.354      
O        O      0.211925000000     0.343366666667     0.875900000000     0.354      
O        O      0.050550000000     0.380000000000     0.819000000000     0.354      
O        O      0.088325000000     0.426733333333     0.825000000000     0.354      
O        O      0.053450000000     0.488300000000     0.825900000000     0.354      
O        O      0.049025000000     0.505866666667     0.873800000000     0.354      
O        O      0.212875000000     0.539866666667     0.936900000000     0.354      
O        O      0.209550000000     0.576000000000     0.974950000000     0.354      
O        O      0.179275000000     0.552900000000     0.529500000000     0.354      
O        O      0.206000000000     0.525966666667     0.566250000000     0.354      
O        O      0.207825000000     0.967800000000     0.319550000000     0.354      
O        O      0.172050000000     0.920200000000     0.327100000000     0.354      
O        O      0.206450000000     0.860933333333     0.326350000000     0.354      
O        O      0.211925000000     0.843366666667     0.374100000000     0.354      
O        O      0.050550000000     0.880000000000     0.431000000000     0.354      
O        O      0.088325000000     0.926733333333     0.425000000000     0.354      
O        O      0.053450000000     0.988300000000     0.424100000000     0.354      
O        O      0.049025000000     0.672533333333     0.376200000000     0.354      
O        O      0.212875000000     0.706533333333     0.313100000000     0.354      
O        O      0.209550000000     0.742666666667     0.275050000000     0.354      
O        O      0.179275000000     0.719566666667     0.220500000000     0.354      
O        O      0.206000000000     0.692633333333     0.183750000000     0.354      
O        O      0.042175000000     0.865533333333     0.069550000000     0.354      
O        O      0.077950000000     0.913133333333     0.077100000000     0.354      
O        O      0.043550000000     0.972400000000     0.076350000000     0.354      
O        O      0.038075000000     0.989966666667     0.124100000000     0.354      
O        O      0.199450000000     0.953333333333     0.181000000000     0.354      
O        O      0.161675000000     0.906600000000     0.175000000000     0.354      
O        O      0.196550000000     0.845033333333     0.174100000000     0.354      
O        O      0.200975000000     0.827466666667     0.126200000000     0.354      
O        O      0.037125000000     0.793466666667     0.063100000000     0.354      
O        O      0.040450000000     0.757333333333     0.025050000000     0.354      
O        O      0.070725000000     0.780433333333     0.470500000000     0.354      
O        O      0.044000000000     0.807366666667     0.433750000000     0.354      
O        O      0.042175000000     0.698866666667     0.180450000000     0.354      
O        O      0.077950000000     0.746466666667     0.172900000000     0.354      
O        O      0.043550000000     0.805733333333     0.173650000000     0.354      
O        O      0.038075000000     0.823300000000     0.125900000000     0.354      
O        O      0.199450000000     0.786666666667     0.069000000000     0.354      
O        O      0.161675000000     0.739933333333     0.075000000000     0.354      
O        O      0.196550000000     0.678366666667     0.075900000000     0.354      
O        O      0.200975000000     0.994133333333     0.123800000000     0.354      
O        O      0.037125000000     0.960133333333     0.186900000000     0.354      
O        O      0.040450000000     0.924000000000     0.224950000000     0.354      
O        O      0.070725000000     0.947100000000     0.279500000000     0.354      
O        O      0.044000000000     0.974033333333     0.316250000000     0.354      
O        O      0.207825000000     0.801133333333     0.430450000000     0.354      
O        O      0.172050000000     0.753533333333     0.422900000000     0.354      
O        O      0.206450000000     0.694266666667     0.423650000000     0.354      
O        O      0.211925000000     0.676700000000     0.375900000000     0.354      
O        O      0.050550000000     0.713333333333     0.319000000000     0.354      
O        O      0.088325000000     0.760066666667     0.325000000000     0.354      
O        O      0.053450000000     0.821633333333     0.325900000000     0.354      
O        O      0.049025000000     0.839200000000     0.373800000000     0.354      
O        O      0.212875000000     0.873200000000     0.436900000000     0.354      
O        O      0.209550000000     0.909333333333     0.474950000000     0.354      
O        O      0.179275000000     0.886233333333     0.029500000000     0.354      
O        O      0.206000000000     0.859300000000     0.066250000000     0.354      
O        O      0.207825000000     0.967800000000     0.819550000000     0.354      
O        O      0.172050000000     0.920200000000     0.827100000000     0.354      
O        O      0.206450000000     0.860933333333     0.826350000000     0.354      
O        O      0.211925000000     0.843366666667     0.874100000000     0.354      
O        O      0.050550000000     0.880000000000     0.931000000000     0.354      
O        O      0.088325000000     0.926733333333     0.925000000000     0.354      
O        O      0.053450000000     0.988300000000     0.924100000000     0.354      
O        O      0.049025000000     0.672533333333     0.876200000000     0.354      
O        O      0.212875000000     0.706533333333     0.813100000000     0.354      
O        O      0.209550000000     0.742666666667     0.775050000000     0.354      
O        O      0.179275000000     0.719566666667     0.720500000000     0.354      
O        O      0.206000000000     0.692633333333     0.683750000000     0.354      
O        O      0.042175000000     0.865533333333     0.569550000000     0.354      
O        O      0.077950000000     0.913133333333     0.577100000000     0.354      
O        O      0.043550000000     0.972400000000     0.576350000000     0.354      
O        O      0.038075000000     0.989966666667     0.624100000000     0.354      
O        O      0.199450000000     0.953333333333     0.681000000000     0.354      
O        O      0.161675000000     0.906600000000     0.675000000000     0.354      
O        O      0.196550000000     0.845033333333     0.674100000000     0.354      
O        O      0.200975000000     0.827466666667     0.626200000000     0.354      
O        O      0.037125000000     0.793466666667     0.563100000000     0.354      
O        O      0.040450000000     0.757333333333     0.525050000000     0.354      
O        O      0.070725000000     0.780433333333     0.970500000000     0.354      
O        O      0.044000000000     0.807366666667     0.933750000000     0.354      
O        O      0.042175000000     0.698866666667     0.680450000000     0.354      
O        O      0.077950000000     0.746466666667     0.672900000000     0.354      
O        O      0.043550000000     0.805733333333     0.673650000000     0.354      
O        O      0.038075000000     0.823300000000     0.625900000000     0.354      
O        O      0.199450000000     0.786666666667     0.569000000000     0.354      
O        O      0.161675000000     0.739933333333     0.575000000000     0.354      
O        O      0.196550000000     0.678366666667     0.575900000000     0.354      
O        O      0.200975000000     0.994133333333     0.623800000000     0.354      
O        O      0.037125000000     0.960133333333     0.686900000000     0.354      
O        O      0.040450000000     0.924000000000     0.724950000000     0.354      
O        O      0.070725000000     0.947100000000     0.779500000000     0.354      
O        O      0.044000000000     0.974033333333     0.816250000000     0.354      
O        O      0.207825000000     0.801133333333     0.930450000000     0.354      
O        O      0.172050000000     0.753533333333     0.922900000000     0.354      
O        O      0.206450000000     0.694266666667     0.923650000000     0.354      
O        O      0.211925000000     0.676700000000     0.875900000000     0.354      
O        O      0.050550000000     0.713333333333     0.819000000000     0.354      
O        O      0.088325000000     0.760066666667     0.825000000000     0.354      
O        O      0.053450000000     0.821633333333     0.825900000000     0.354      
O        O      0.049025000000     0.839200000000     0.873800000000     0.354      
O        O      0.212875000000     0.873200000000     0.936900000000     0.354      
O        O      0.209550000000     0.909333333333     0.974950000000     0.354      
O        O      0.179275000000     0.886233333333     0.529500000000     0.354      
O        O      0.206000000000     0.859300000000     0.566250000000     0.354      
O        O      0.457825000000     0.301133333333     0.319550000000     0.354      
O        O      0.422050000000     0.253533333333     0.327100000000     0.354      
O        O      0.456450000000     0.194266666667     0.326350000000     0.354      
O        O      0.461925000000     0.176700000000     0.374100000000     0.354      
O        O      0.300550000000     0.213333333333     0.431000000000     0.354      
O        O      0.338325000000     0.260066666667     0.425000000000     0.354      
O        O      0.303450000000     0.321633333333     0.424100000000     0.354      
O        O      0.299025000000     0.005866666667     0.376200000000     0.354      
O        O      0.462875000000     0.039866666667     0.313100000000     0.354      
O        O      0.459550000000     0.076000000000     0.275050000000     0.354      
O        O      0.429275000000     0.052900000000     0.220500000000     0.354      
O        O      0.456000000000     0.025966666667     0.183750000000     0.354      
O        O      0.292175000000     0.198866666667     0.069550000000     0.354      
O        O      0.327950000000     0.246466666667     0.077100000000     0.354      
O        O      0.293550000000     0.305733333333     0.076350000000     0.354      
O        O      0.288075000000     0.323300000000     0.124100000000     0.354      
O        O      0.449450000000     0.286666666667     0.181000000000     0.354      
O        O      0.411675000000     0.239933333333     0.175000000000     0.354      
O        O      0.446550000000     0.178366666667     0.174100000000     0.354      
O        O      0.450975000000     0.160800000000     0.126200000000     0.354      
O        O      0.287125000000     0.126800000000     0.063100000000     0.354      
O        O      0.290450000000     0.090666666667     0.025050000000     0.354      
O        O      0.320725000000     0.113766666667     0.470500000000     0.354      
O        O      0.294000000000     0.140700000000     0.433750000000     0.354      
O        O      0.292175000000     0.032200000000     0.180450000000     0.354      
O        O      0.327950000000     0.079800000000     0.172900000000     0.354      
O        O      0.293550000000     0.139066666667     0.173650000000     0.354      
O        O      0.288075000000     0.156633333333     0.125900000000     0.354      
O        O      0.449450000000     0.120000000000     0.069000000000     0.354      
O        O      0.411675000000     0.073266666667     0.075000000000     0.354      
O        O      0.446550000000     0.011700000000     0.075900000000     0.354      
O        O      0.450975000000     0.327466666667     0.123800000000     0.354      
O        O      0.287125000000     0.293466666667     0.186900000000     0.354      
O        O      0.290450000000     0.257333333333     0.224950000000     0.354      
O        O      0.320725000000     0.280433333333     0.279500000000     0.354      
O        O      0.294000000000     0.307366666667     0.316250000000     0.354      
O        O      0.457825000000     0.134466666667     0.430450000000     0.354      
O        O      0.422050000000     0.086866666667     0.422900000000     0.354      
O        O      0.456450000000     0.027600000000     0.423650000000     0.354      
O        O      0.461925000000     0.010033333333     0.375900000000     0.354      
O        O      0.300550000000     0.046666666667     0.319000000000     0.354      
O        O      0.338325000000     0.093400000000     0.325000000000     0.354      
O        O      0.303450000000     0.154966666667     0.325900000000     0.354      
O        O      0.299025000000     0.172533333333     0.373800000000     0.354      
O        O      0.462875000000     0.206533333333     0.436900000000     0.354      
O        O      0.459550000000     0.242666666667     0.474950000000     0.354      
O        O      0.429275000000     0.219566666667     0.029500000000     0.354      
O        O      0.456000000000     0.192633333333     0.066250000000     0.354      
O        O      0.457825000000     0.301133333333     0.819550000000     0.354      
O        O      0.422050000000     0.253533333333     0.827100000000     0.354      
O        O      0.456450000000     0.194266666667     0.826350000000     0.354      
O        O      0.461925000000     0.176700000000     0.874100000000     0.354      
O        O      0.300550000000     0.213333333333     0.931000000000     0.354      
O        O      0.338325000000     0.260066666667     0.925000000000     0.354      
O        O      0.303450000000     0.321633333333     0.924100000000     0.354      
O        O      0.299025000000     0.005866666667     0.876200000000     0.354      
O        O      0.462875000000     0.039866666667     0.813100000000     0.354      
O        O      0.459550000000     0.076000000000     0.775050000000     0.354      
O        O      0.429275000000     0.052900000000     0.720500000000     0.354      
O        O      0.456000000000     0.025966666667     0.683750000000     0.354      
O        O      0.292175000000     0.198866666667     0.569550000000     0.354      
O        O      0.327950000000     0.246466666667     0.577100000000     0.354      
O        O      0.293550000000     0.305733333333     0.576350000000     0.354      
O        O      0.288075000000     0.323300000000     0.624100000000     0.354      
O        O      0.449450000000     0.286666666667     0.681000000000     0.354      
O        O      0.411675000000     0.239933333333     0.675000000000     0.354      
O        O      0.446550000000     0.178366666667     0.674100000000     0.354      
O        O      0.450975000000     0.160800000000     0.626200000000     0.354      
O        O      0.287125000000     0.126800000000     0.563100000000     0.354      
O        O      0.290450000000     0.090666666667     0.525050000000     0.354      
O        O      0.320725000000     0.113766666667     0.970500000000     0.354      
O        O      0.294000000000     0.140700000000     0.933750000000     0.354      
O        O      0.292175000000     0.032200000000     0.680450000000     0.354      
O        O      0.327950000000     0.079800000000     0.672900000000     0.354      
O        O      0.293550000000     0.139066666667     0.673650000000     0.354      
O        O      0.288075000000     0.156633333333     0.625900000000     0.354      
O        O      0.449450000000     0.120000000000     0.569000000000     0.354      
O        O      0.411675000000     0.073266666667     0.575000000000     0.354      
O        O      0.446550000000     0.011700000000     0.575900000000     0.354      
O        O      0.450975000000     0.327466666667     0.623800000000     0.354      
O        O      0.287125000000     0.293466666667     0.686900000000     0.354      
O        O      0.290450000000     0.257333333333     0.724950000000     0.354      
O        O      0.320725000000     0.280433333333     0.779500000000     0.354      
O        O      0.294000000000     0.307366666667     0.816250000000     0.354      
O        O      0.457825000000     0.134466666667     0.930450000000     0.354      
O        O      0.422050000000     0.086866666667     0.922900000000     0.354      
O        O      0.456450000000     0.027600000000     0.923650000000     0.354      
O        O      0.461925000000     0.010033333333     0.875900000000     0.354      
O        O      0.300550000000     0.046666666667     0.819000000000     0.354      
O        O      0.338325000000     0.093400000000     0.825000000000     0.354      
O        O      0.303450000000     0.154966666667     0.825900000000     0.354      
O        O      0.299025000000     0.172533333333     0.873800000000     0.354      
O        O      0.462875000000     0.206533333333     0.936900000000     0.354      
O        O      0.459550000000     0.242666666667     0.974950000000     0.354      
O        O      0.429275000000     0.219566666667     0.529500000000     0.354      
O        O      0.456000000000     0.192633333333     0.566250000000     0.354      
O        O      0.457825000000     0.634466666667     0.319550000000     0.354      
O        O      0.422050000000     0.586866666667     0.327100000000     0.354      
O        O      0.456450000000     0.527600000000     0.326350000000     0.354      
O        O      0.461925000000     0.510033333333     0.374100000000     0.354      
O        O      0.300550000000     0.546666666667     0.431000000000     0.354      
O        O      0.338325000000     0.593400000000     0.425000000000     0.354      
O        O      0.303450000000     0.654966666667     0.424100000000     0.354      
O        O      0.299025000000     0.339200000000     0.376200000000     0.354      
O        O      0.462875000000     0.373200000000     0.313100000000     0.354      
O        O      0.459550000000     0.409333333333     0.275050000000     0.354      
O        O      0.429275000000     0.386233333333     0.220500000000     0.354      
O        O      0.456000000000     0.359300000000     0.183750000000     0.354      
O        O      0.292175000000     0.532200000000     0.069550000000     0.354      
O        O      0.327950000000     0.579800000000     0.077100000000     0.354      
O        O      0.293550000000     0.639066666667     0.076350000000     0.354      
O        O      0.288075000000     0.656633333333     0.124100000000     0.354      
O        O      0.449450000000     0.620000000000     0.181000000000     0.354      
O        O      0.411675000000     0.573266666667     0.175000000000     0.354      
O        O      0.446550000000     0.511700000000     0.174100000000     0.354      
O        O      0.450975000000     0.494133333333     0.126200000000     0.354      
O        O      0.287125000000     0.460133333333     0.063100000000     0.354      
O        O      0.290450000000     0.424000000000     0.025050000000     0.354      
O        O      0.320725000000     0.447100000000     0.470500000000     0.354      
O        O      0.294000000000     0.474033333333     0.433750000000     0.354      
O        O      0.292175000000     0.365533333333     0.180450000000     0.354      
O        O      0.327950000000     0.413133333333     0.172900000000     0.354      
O        O      0.293550000000     0.472400000000     0.173650000000     0.354      
O        O      0.288075000000     0.489966666667     0.125900000000     0.354      
O        O      0.449450000000     0.453333333333     0.069000000000     0.354      
O        O      0.411675000000     0.406600000000     0.075000000000     0.354      
O        O      0.446550000000     0.345033333333     0.075900000000     0.354      
O        O      0.450975000000     0.660800000000     0.123800000000     0.354      
O        O      0.287125000000     0.626800000000     0.186900000000     0.354      
O        O      0.290450000000     0.590666666667     0.224950000000     0.354      
O        O      0.320725000000     0.613766666667     0.279500000000     0.354      
O        O      0.294000000000     0.640700000000     0.316250000000     0.354      
O        O      0.457825000000     0.467800000000     0.430450000000     0.354      
O        O      0.422050000000     0.420200000000     0.422900000000     0.354      
O        O      0.456450000000     0.360933333333     0.423650000000     0.354      
O        O      0.461925000000     0.343366666667     0.375900000000     0.354      
O        O      0.300550000000     0.380000000000     0.319000000000     0.354      
O        O      0.338325000000     0.426733333333     0.325000000000     0.354      
O        O      0.303450000000     0.488300000000     0.325900000000     0.354      
O        O      0.299025000000     0.505866666667     0.373800000000     0.354      
O        O      0.462875000000     0.539866666667     0.436900000000     0.354      
O        O      0.459550000000     0.576000000000     0.474950000000     0.354      
O        O      0.429275000000     0.552900000000     0.029500000000     0.354      
O        O      0.456000000000     0.525966666667     0.066250000000     0.354      
O        O      0.457825000000     0.634466666667     0.819550000000     0.354      
O        O      0.422050000000     0.586866666667     0.827100000000     0.354      
O        O      0.456450000000     0.527600000000     0.826350000000     0.354      
O        O      0.461925000000     0.510033333333     0.874100000000     0.354      
O        O      0.300550000000     0.546666666667     0.931000000000     0.354      
O        O      0.338325000000     0.593400000000     0.925000000000     0.354      
O        O      0.303450000000     0.654966666667     0.924100000000     0.354      
O        O      0.299025000000     0.339200000000     0.876200000000     0.354      
O        O      0.462875000000     0.373200000000     0.813100000000     0.354      
O        O      0.459550000000     0.409333333333     0.775050000000     0.354      
O        O      0.429275000000     0.386233333333     0.720500000000     0.354      
O        O      0.456000000000     0.359300000000     0.683750000000     0.354      
O        O      0.292175000000     0.532200000000     0.569550000000     0.354      
O        O      0.327950000000     0.579800000000     0.577100000000     0.354      
O        O      0.293550000000     0.639066666667     0.576350000000     0.354      
O        O      0.288075000000     0.656633333333     0.624100000000     0.354      
O        O      0.449450000000     0.620000000000     0.681000000000     0.354      
O        O      0.411675000000     0.573266666667     0.675000000000     0.354      
O        O      0.446550000000     0.511700000000     0.674100000000     0.354      
O        O      0.450975000000     0.494133333333     0.626200000000     0.354      
O        O      0.287125000000     0.460133333333     0.563100000000     0.354      
O        O      0.290450000000     0.424000000000     0.525050000000     0.354      
O        O      0.320725000000     0.447100000000     0.970500000000     0.354      
O        O      0.294000000000     0.474033333333     0.933750000000     0.354      
O        O      0.292175000000     0.365533333333     0.680450000000     0.354      
O        O      0.327950000000     0.413133333333     0.672900000000     0.354      
O        O      0.293550000000     0.472400000000     0.673650000000     0.354      
O        O      0.288075000000     0.489966666667     0.625900000000     0.354      
O        O      0.449450000000     0.453333333333     0.569000000000     0.354      
O        O      0.411675000000     0.406600000000     0.575000000000     0.354      
O        O      0.446550000000     0.345033333333     0.575900000000     0.354      
O        O      0.450975000000     0.660800000000     0.623800000000     0.354      
O        O      0.287125000000     0.626800000000     0.686900000000     0.354      
O        O      0.290450000000     0.590666666667     0.724950000000     0.354      
O        O      0.320725000000     0.613766666667     0.779500000000     0.354      
O        O      0.294000000000     0.640700000000     0.816250000000     0.354      
O        O      0.457825000000     0.467800000000     0.930450000000     0.354      
O        O      0.422050000000     0.420200000000     0.922900000000     0.354      
O        O      0.456450000000     0.360933333333     0.923650000000     0.354      
O        O      0.461925000000     0.343366666667     0.875900000000     0.354      
O        O      0.300550000000     0.380000000000     0.819000000000     0.354      
O        O      0.338325000000     0.426733333333     0.825000000000     0.354      
O        O      0.303450000000     0.488300000000     0.825900000000     0.354      
O        O      0.299025000000     0.505866666667     0.873800000000     0.354      
O        O      0.462875000000     0.539866666667     0.936900000000     0.354      
O        O      0.459550000000     0.576000000000     0.974950000000     0.354      
O        O      0.429275000000     0.552900000000     0.529500000000     0.354      
O        O      0.456000000000     0.525966666667     0.566250000000     0.354      
O        O      0.457825000000     0.967800000000     0.319550000000     0.354      
O        O      0.422050000000     0.920200000000     0.327100000000     0.354      
O        O      0.456450000000     0.860933333333     0.326350000000     0.354      
O        O      0.461925000000     0.843366666667     0.374100000000     0.354      
O        O      0.300550000000     0.880000000000     0.431000000000     0.354      
O        O      0.338325000000     0.926733333333     0.425000000000     0.354      
O        O      0.303450000000     0.988300000000     0.424100000000     0.354      
O        O      0.299025000000     0.672533333333     0.376200000000     0.354      
O        O      0.462875000000     0.706533333333     0.313100000000     0.354      
O        O      0.459550000000     0.742666666667     0.275050000000     0.354      
O        O      0.429275000000     0.719566666667     0.220500000000     0.354      
O        O      0.456000000000     0.692633333333     0.183750000000     0.354      
O        O      0.292175000000     0.865533333333     0.069550000000     0.354      
O        O      0.327950000000     0.913133333333     0.077100000000     0.354      
O        O      0.293550000000     0.972400000000     0.076350000000     0.354      
O        O      0.288075000000     0.989966666667     0.124100000000     0.354      
O        O      0.449450000000     0.953333333333     0.181000000000     0.354      
O        O      0.411675000000     0.906600000000     0.175000000000     0.354      
O        O      0.446550000000     0.845033333333     0.174100000000     0.354      
O        O      0.450975000000     0.827466666667     0.126200000000     0.354      
O        O      0.287125000000     0.793466666667     0.063100000000     0.354      
O        O      0.290450000000     0.757333333333     0.025050000000     0.354      
O        O      0.320725000000     0.780433333333     0.470500000000     0.354      
O        O      0.294000000000     0.807366666667     0.433750000000     0.354      
O        O      0.292175000000     0.698866666667     0.180450000000     0.354      
O        O      0.327950000000     0.746466666667     0.172900000000     0.354      
O        O      0.293550000000     0.805733333333     0.173650000000     0.354      
O        O      0.288075000000     0.823300000000     0.125900000000     0.354      
O        O      0.449450000000     0.786666666667     0.069000000000     0.354      
O        O      0.411675000000     0.739933333333     0.075000000000     0.354      
O        O      0.446550000000     0.678366666667     0.075900000000     0.354      
O        O      0.450975000000     0.994133333333     0.123800000000     0.354      
O        O      0.287125000000     0.960133333333     0.186900000000     0.354      
O        O      0.290450000000     0.924000000000     0.224950000000     0.354      
O        O      0.320725000000     0.947100000000     0.279500000000     0.354      
O        O      0.294000000000     0.974033333333     0.316250000000     0.354      
O        O      0.457825000000     0.801133333333     0.430450000000     0.354      
O        O      0.422050000000     0.753533333333     0.422900000000     0.354      
O        O      0.456450000000     0.694266666667     0.423650000000     0.354      
O        O      0.461925000000     0.676700000000     0.375900000000     0.354      
O        O      0.300550000000     0.713333333333     0.319000000000     0.354      
O        O      0.338325000000     0.760066666667     0.325000000000     0.354      
O        O      0.303450000000     0.821633333333     0.325900000000     0.354      
O        O      0.299025000000     0.839200000000     0.373800000000     0.354      
O        O      0.462875000000     0.873200000000     0.436900000000     0.354      
O        O      0.459550000000     0.909333333333     0.474950000000     0.354      
O        O      0.429275000000     0.886233333333     0.029500000000     0.354      
O        O      0.456000000000     0.859300000000     0.066250000000     0.354      
O        O      0.457825000000     0.967800000000     0.819550000000     0.354      
O        O      0.422050000000     0.920200000000     0.827100000000     0.354      
O        O      0.456450000000     0.860933333333     0.826350000000     0.354      
O        O      0.461925000000     0.843366666667     0.874100000000     0.354      
O        O      0.300550000000     0.880000000000     0.931000000000     0.354      
O        O      0.338325000000     0.926733333333     0.925000000000     0.354      
O        O      0.303450000000     0.988300000000     0.924100000000     0.354      
O        O      0.299025000000     0.672533333333     0.876200000000     0.354      
O        O      0.462875000000     0.706533333333     0.813100000000     0.354      
O        O      0.459550000000     0.742666666667     0.775050000000     0.354      
O        O      0.429275000000     0.719566666667     0.720500000000     0.354      
O        O      0.456000000000     0.692633333333     0.683750000000     0.354      
O        O      0.292175000000     0.865533333333     0.569550000000     0.354      
O        O      0.327950000000     0.913133333333     0.577100000000     0.354      
O        O      0.293550000000     0.972400000000     0.576350000000     0.354      
O        O      0.288075000000     0.989966666667     0.624100000000     0.354      
O        O      0.449450000000     0.953333333333     0.681000000000     0.354      
O        O      0.411675000000     0.906600000000     0.675000000000     0.354      
O        O      0.446550000000     0.845033333333     0.674100000000     0.354      
O        O      0.450975000000     0.827466666667     0.626200000000     0.354      
O        O      0.287125000000     0.793466666667     0.563100000000     0.354      
O        O      0.290450000000     0.757333333333     0.525050000000     0.354      
O        O      0.320725000000     0.780433333333     0.970500000000     0.354      
O        O      0.294000000000     0.807366666667     0.933750000000     0.354      
O        O      0.292175000000     0.698866666667     0.680450000000     0.354      
O        O      0.327950000000     0.746466666667     0.672900000000     0.354      
O        O      0.293550000000     0.805733333333     0.673650000000     0.354      
O        O      0.288075000000     0.823300000000     0.625900000000     0.354      
O        O      0.449450000000     0.786666666667     0.569000000000     0.354      
O        O      0.411675000000     0.739933333333     0.575000000000     0.354      
O        O      0.446550000000     0.678366666667     0.575900000000     0.354      
O        O      0.450975000000     0.994133333333     0.623800000000     0.354      
O        O      0.287125000000     0.960133333333     0.686900000000     0.354      
O        O      0.290450000000     0.924000000000     0.724950000000     0.354      
O        O      0.320725000000     0.947100000000     0.779500000000     0.354      
O        O      0.294000000000     0.974033333333     0.816250000000     0.354      
O        O      0.457825000000     0.801133333333     0.930450000000     0.354      
O        O      0.422050000000     0.753533333333     0.922900000000     0.354      
O        O      0.456450000000     0.694266666667     0.923650000000     0.354      
O        O      0.461925000000     0.676700000000     0.875900000000     0.354      
O        O      0.300550000000     0.713333333333     0.819000000000     0.354      
O        O      0.338325000000     0.760066666667     0.825000000000     0.354      
O        O      0.303450000000     0.821633333333     0.825900000000     0.354      
O        O      0.299025000000     0.839200000000     0.873800000000     0.354      
O        O      0.462875000000     0.873200000000     0.936900000000     0.354      
O        O      0.459550000000     0.909333333333     0.974950000000     0.354      
O        O      0.429275000000     0.886233333333     0.529500000000     0.354      
O        O      0.456000000000     0.859300000000     0.566250000000     0.354      
O        O      0.707825000000     0.301133333333     0.319550000000     0.354      
O        O      0.672050000000     0.253533333333     0.327100000000     0.354      
O        O      0.706450000000     0.194266666667     0.326350000000     0.354      
O        O      0.711925000000     0.176700000000     0.374100000000     0.354      
O        O      0.550550000000     0.213333333333     0.431000000000     0.354      
O        O      0.588325000000     0.260066666667     0.425000000000     0.354      
O        O      0.553450000000     0.321633333333     0.424100000000     0.354      
O        O      0.549025000000     0.005866666667     0.376200000000     0.354      
O        O      0.712875000000     0.039866666667     0.313100000000     0.354      
O        O      0.709550000000     0.076000000000     0.275050000000     0.354      
O        O      0.679275000000     0.052900000000     0.220500000000     0.354      
O        O      0.706000000000     0.025966666667     0.183750000000     0.354      
O        O      0.542175000000     0.198866666667     0.069550000000     0.354      
O        O      0.577950000000     0.246466666667     0.077100000000     0.354      
O        O      0.543550000000     0.305733333333     0.076350000000     0.354      
O        O      0.538075000000     0.323300000000     0.124100000000     0.354      
O        O      0.699450000000     0.286666666667     0.181000000000     0.354      
O        O      0.661675000000     0.239933333333     0.175000000000     0.354      
O        O      0.696550000000     0.178366666667     0.174100000000     0.354      
O        O      0.700975000000     0.160800000000     0.126200000000     0.354      
O        O      0.537125000000     0.126800000000     0.063100000000     0.354      
O        O      0.540450000000     0.090666666667     0.025050000000     0.354      
O        O      0.570725000000     0.113766666667     0.470500000000     0.354      
O        O      0.544000000000     0.140700000000     0.433750000000     0.354      
O        O      0.542175000000     0.032200000000     0.180450000000     0.354      
O        O      0.577950000000     0.079800000000     0.172900000000     0.354      
O        O      0.543550000000     0.139066666667     0.173650000000     0.354      
O        O      0.538075000000     0.156633333333     0.125900000000     0.354      
O        O      0.699450000000     0.120000000000     0.069000000000     0.354      
O        O      0.661675000000     0.073266666667     0.075000000000     0.354      
O        O      0.696550000000     0.011700000000     0.075900000000     0.354      
O        O      0.700975000000     0.327466666667     0.123800000000     0.354      
O        O      0.537125000000     0.293466666667     0.186900000000     0.354      
O        O      0.540450000000     0.257333333333     0.224950000000     0.354      
O        O      0.570725000000     0.280433333333     0.279500000000     0.354      
O        O      0.544000000000     0.307366666667     0.316250000000     0.354      
O        O      0.707825000000     0.134466666667     0.430450000000     0.354      
O        O      0.672050000000     0.086866666667     0.422900000000     0.354      
O        O      0.706450000000     0.027600000000     0.423650000000     0.354      
O        O      0.711925000000     0.010033333333     0.375900000000     0.354      
O        O      0.550550000000     0.046666666667     0.319000000000     0.354      
O        O      0.588325000000     0.093400000000     0.325000000000     0.354      
O        O      0.553450000000     0.154966666667     0.325900000000     0.354      
O        O      0.549025000000     0.172533333333     0.373800000000     0.354      
O        O      0.712875000000     0.206533333333     0.436900000000     0.354      
O        O      0.709550000000     0.242666666667     0.474950000000     0.354      
O        O      0.679275000000     0.219566666667     0.029500000000     0.354      
O        O      0.706000000000     0.192633333333     0.066250000000     0.354      
O        O      0.707825000000     0.301133333333     0.819550000000     0.354      
O        O      0.672050000000     0.253533333333     0.827100000000     0.354      
O        O      0.706450000000     0.194266666667     0.826350000000     0.354      
O        O      0.711925000000     0.176700000000     0.874100000000     0.354      
O        O      0.550550000000     0.213333333333     0.931000000000     0.354      
O        O      0.588325000000     0.260066666667     0.925000000000     0.354      
O        O      0.553450000000     0.321633333333     0.924100000000     0.354      
O        O      0.549025000000     0.005866666667     0.876200000000     0.354      
O        O      0.712875000000     0.039866666667     0.813100000000     0.354      
O        O      0.709550000000     0.076000000000     0.775050000000     0.354      
O        O      0.679275000000     0.052900000000     0.720500000000     0.354      
O        O      0.706000000000     0.025966666667     0.683750000000     0.354      
O        O      0.542175000000     0.198866666667     0.569550000000     0.354      
O        O      0.577950000000     0.246466666667     0.577100000000     0.354      
O        O      0.543550000000     0.305733333333     0.576350000000     0.354      
O        O      0.538075000000     0.323300000000     0.624100000000     0.354      
O        O      0.699450000000     0.286666666667     0.681000000000     0.354      
O        O      0.661675000000     0.239933333333     0.675000000000     0.354      
O        O      0.696550000000     0.178366666667     0.674100000000     0.354      
O        O      0.700975000000     0.160800000000     0.626200000000     0.354      
O        O      0.537125000000     0.126800000000     0.563100000000     0.354      
O        O      0.540450000000     0.090666666667     0.525050000000     0.354      
O        O      0.570725000000     0.113766666667     0.970500000000     0.354      
O        O      0.544000000000     0.140700000000     0.933750000000     0.354      
O        O      0.542175000000     0.032200000000     0.680450000000     0.354      
O        O      0.577950000000     0.079800000000     0.672900000000     0.354      
O        O      0.543550000000     0.139066666667     0.673650000000     0.354      
O        O      0.538075000000     0.156633333333     0.625900000000     0.354      
O        O      0.699450000000     0.120000000000     0.569000000000     0.354      
O        O      0.661675000000     0.073266666667     0.575000000000     0.354      
O        O      0.696550000000     0.011700000000     0.575900000000     0.354      
O        O      0.700975000000     0.327466666667     0.623800000000     0.354      
O        O      0.537125000000     0.293466666667     0.686900000000     0.354      
O        O      0.540450000000     0.257333333333     0.724950000000     0.354      
O        O      0.570725000000     0.280433333333     0.779500000000     0.354      
O        O      0.544000000000     0.307366666667     0.816250000000     0.354      
O        O      0.707825000000     0.134466666667     0.930450000000     0.354      
O        O      0.672050000000     0.086866666667     0.922900000000     0.354      
O        O      0.706450000000     0.027600000000     0.923650000000     0.354      
O        O      0.711925000000     0.010033333333     0.875900000000     0.354      
O        O      0.550550000000     0.046666666667     0.819000000000     0.354      
O        O      0.588325000000     0.093400000000     0.825000000000     0.354      
O        O      0.553450000000     0.154966666667     0.825900000000     0.354      
O        O      0.549025000000     0.172533333333     0.873800000000     0.354      
O        O      0.712875000000     0.206533333333     0.936900000000     0.354      
O        O      0.709550000000     0.242666666667     0.974950000000     0.354      
O        O      0.679275000000     0.219566666667     0.529500000000     0.354      
O        O      0.706000000000     0.192633333333     0.566250000000     0.354      
O        O      0.707825000000     0.634466666667     0.319550000000     0.354      
O        O      0.672050000000     0.586866666667     0.327100000000     0.354      
O        O      0.706450000000     0.527600000000     0.326350000000     0.354      
O        O      0.711925000000     0.510033333333     0.374100000000     0.354      
O        O      0.550550000000     0.546666666667     0.431000000000     0.354      
O        O      0.588325000000     0.593400000000     0.425000000000     0.354      
O        O      0.553450000000     0.654966666667     0.424100000000     0.354      
O        O      0.549025000000     0.339200000000     0.376200000000     0.354      
O        O      0.712875000000     0.373200000000     0.313100000000     0.354      
O        O      0.709550000000     0.409333333333     0.275050000000     0.354      
O        O      0.679275000000     0.386233333333     0.220500000000     0.354      
O        O      0.706000000000     0.359300000000     0.183750000000     0.354      
O        O      0.542175000000     0.532200000000     0.069550000000     0.354      
O        O      0.577950000000     0.579800000000     0.077100000000     0.354      
O        O      0.543550000000     0.639066666667     0.076350000000     0.354      
O        O      0.538075000000     0.656633333333     0.124100000000     0.354      
O        O      0.699450000000     0.620000000000     0.181000000000     0.354      
O        O      0.661675000000     0.573266666667     0.175000000000     0.354      
O        O      0.696550000000     0.511700000000     0.174100000000     0.354      
O        O      0.700975000000     0.494133333333     0.126200000000     0.354      
O        O      0.537125000000     0.460133333333     0.063100000000     0.354      
O        O      0.540450000000     0.424000000000     0.025050000000     0.354      
O        O      0.570725000000     0.447100000000     0.470500000000     0.354      
O        O      0.544000000000     0.474033333333     0.433750000000     0.354      
O        O      0.542175000000     0.365533333333     0.180450000000     0.354      
O        O      0.577950000000     0.413133333333     0.172900000000     0.354      
O        O      0.543550000000     0.472400000000     0.173650000000     0.354      
O        O      0.538075000000     0.489966666667     0.125900000000     0.354      
O        O      0.699450000000     0.453333333333     0.069000000000     0.354      
O        O      0.661675000000     0.406600000000     0.075000000000     0.354      
O        O      0.696550000000     0.345033333333     0.075900000000     0.354      
O        O      0.700975000000     0.660800000000     0.123800000000     0.354      
O        O      0.537125000000     0.626800000000     0.186900000000     0.354      
O        O      0.540450000000     0.590666666667     0.224950000000     0.354      
O        O      0.570725000000     0.613766666667     0.279500000000     0.354      
O        O      0.544000000000     0.640700000000     0.316250000000     0.354      
O        O      0.707825000000     0.467800000000     0.430450000000     0.354      
O        O      0.672050000000     0.420200000000     0.422900000000     0.354      
O        O      0.706450000000     0.360933333333     0.423650000000     0.354      
O        O      0.711925000000     0.343366666667     0.375900000000     0.354      
O        O      0.550550000000     0.380000000000     0.319000000000     0.354      
O        O      0.588325000000     0.426733333333     0.325000000000     0.354      
O        O      0.553450000000     0.488300000000     0.325900000000     0.354      
O        O      0.549025000000     0.505866666667     0.373800000000     0.354      
O        O      0.712875000000     0.539866666667     0.436900000000     0.354      
O        O      0.709550000000     0.576000000000     0.474950000000     0.354      
O        O      0.679275000000     0.552900000000     0.029500000000     0.354      
O        O      0.706000000000     0.525966666667     0.066250000000     0.354      
O        O      0.707825000000     0.634466666667     0.819550000000     0.354      
O        O      0.672050000000     0.586866666667     0.827100000000     0.354      
O        O      0.706450000000     0.527600000000     0.826350000000     0.354      
O        O      0.711925000000     0.510033333333     0.874100000000     0.354      
O        O      0.550550000000     0.546666666667     0.931000000000     0.354      
O        O      0.588325000000     0.593400000000     0.925000000000     0.354      
O        O      0.553450000000     0.654966666667     0.924100000000     0.354      
O        O      0.549025000000     0.339200000000     0.876200000000     0.354      
O        O      0.712875000000     0.373200000000     0.813100000000     0.354      
O        O      0.709550000000     0.409333333333     0.775050000000     0.354      
O        O      0.679275000000     0.386233333333     0.720500000000     0.354      
O        O      0.706000000000     0.359300000000     0.683750000000     0.354      
O        O      0.542175000000     0.532200000000     0.569550000000     0.354      
O        O      0.577950000000     0.579800000000     0.577100000000     0.354      
O        O      0.543550000000     0.639066666667     0.576350000000     0.354      
O        O      0.538075000000     0.656633333333     0.624100000000     0.354      
O        O      0.699450000000     0.620000000000     0.681000000000     0.354      
O        O      0.661675000000     0.573266666667     0.675000000000     0.354      
O        O      0.696550000000     0.511700000000     0.674100000000     0.354      
O        O      0.700975000000     0.494133333333     0.626200000000     0.354      
O        O      0.537125000000     0.460133333333     0.563100000000     0.354      
O        O      0.540450000000     0.424000000000     0.525050000000     0.354      
O        O      0.570725000000     0.447100000000     0.970500000000     0.354      
O        O      0.544000000000     0.474033333333     0.933750000000     0.354      
O        O      0.542175000000     0.365533333333     0.680450000000     0.354      
O        O      0.577950000000     0.413133333333     0.672900000000     0.354      
O        O      0.543550000000     0.472400000000     0.673650000000     0.354      
O        O      0.538075000000     0.489966666667     0.625900000000     0.354      
O        O      0.699450000000     0.453333333333     0.569000000000     0.354      
O        O      0.661675000000     0.406600000000     0.575000000000     0.354      
O        O      0.696550000000     0.345033333333     0.575900000000     0.354      
O        O      0.700975000000     0.660800000000     0.623800000000     0.354      
O        O      0.537125000000     0.626800000000     0.686900000000     0.354      
O        O      0.540450000000     0.590666666667     0.724950000000     0.354      
O        O      0.570725000000     0.613766666667     0.779500000000     0.354      
O        O      0.544000000000     0.640700000000     0.816250000000     0.354      
O        O      0.707825000000     0.467800000000     0.930450000000     0.354      
O        O      0.672050000000     0.420200000000     0.922900000000     0.354      
O        O      0.706450000000     0.360933333333     0.923650000000     0.354      
O        O      0.711925000000     0.343366666667     0.875900000000     0.354      
O        O      0.550550000000     0.380000000000     0.819000000000     0.354      
O        O      0.588325000000     0.426733333333     0.825000000000     0.354      
O        O      0.553450000000     0.488300000000     0.825900000000     0.354      
O        O      0.549025000000     0.505866666667     0.873800000000     0.354      
O        O      0.712875000000     0.539866666667     0.936900000000     0.354      
O        O      0.709550000000     0.576000000000     0.974950000000     0.354      
O        O      0.679275000000     0.552900000000     0.529500000000     0.354      
O        O      0.706000000000     0.525966666667     0.566250000000     0.354      
O        O      0.707825000000     0.967800000000     0.319550000000     0.354      
O        O      0.672050000000     0.920200000000     0.327100000000     0.354      
O        O      0.706450000000     0.860933333333     0.326350000000     0.354      
O        O      0.711925000000     0.843366666667     0.374100000000     0.354      
O        O      0.550550000000     0.880000000000     0.431000000000     0.354      
O        O      0.588325000000     0.926733333333     0.425000000000     0.354      
O        O      0.553450000000     0.988300000000     0.424100000000     0.354      
O        O      0.549025000000     0.672533333333     0.376200000000     0.354      
O        O      0.712875000000     0.706533333333     0.313100000000     0.354      
O        O      0.709550000000     0.742666666667     0.275050000000     0.354      
O        O      0.679275000000     0.719566666667     0.220500000000     0.354      
O        O      0.706000000000     0.692633333333     0.183750000000     0.354      
O        O      0.542175000000     0.865533333333     0.069550000000     0.354      
O        O      0.577950000000     0.913133333333     0.077100000000     0.354      
O        O      0.543550000000     0.972400000000     0.076350000000     0.354      
O        O      0.538075000000     0.989966666667     0.124100000000     0.354      
O        O      0.699450000000     0.953333333333     0.181000000000     0.354      
O        O      0.661675000000     0.906600000000     0.175000000000     0.354      
O        O      0.696550000000     0.845033333333     0.174100000000     0.354      
O        O      0.700975000000     0.827466666667     0.126200000000     0.354      
O        O      0.537125000000     0.793466666667     0.063100000000     0.354      
O        O      0.540450000000     0.757333333333     0.025050000000     0.354      
O        O      0.570725000000     0.780433333333     0.470500000000     0.354      
O        O      0.544000000000     0.807366666667     0.433750000000     0.354      
O        O      0.542175000000     0.698866666667     0.180450000000     0.354      
O        O      0.577950000000     0.746466666667     0.172900000000     0.354      
O        O      0.543550000000     0.805733333333     0.173650000000     0.354      
O        O      0.538075000000     0.823300000000     0.125900000000     0.354      
O        O      0.699450000000     0.786666666667     0.069000000000     0.354      
O        O      0.661675000000     0.739933333333     0.075000000000     0.354      
O        O      0.696550000000     0.678366666667     0.075900000000     0.354      
O        O      0.700975000000     0.994133333333     0.123800000000     0.354      
O        O      0.537125000000     0.960133333333     0.186900000000     0.354      
O        O      0.540450000000     0.924000000000     0.224950000000     0.354      
O        O      0.570725000000     0.947100000000     0.279500000000     0.354      
O        O      0.544000000000     0.974033333333     0.316250000000     0.354      
O        O      0.707825000000     0.801133333333     0.430450000000     0.354      
O        O      0.672050000000     0.753533333333     0.422900000000     0.354      
O        O      0.706450000000     0.694266666667     0.423650000000     0.354      
O        O      0.711925000000     0.676700000000     0.375900000000     0.354      
O        O      0.550550000000     0.713333333333     0.319000000000     0.354      
O        O      0.588325000000     0.760066666667     0.325000000000     0.354      
O        O      0.553450000000     0.821633333333     0.325900000000     0.354      
O        O      0.549025000000     0.839200000000     0.373800000000     0.354      
O        O      0.712875000000     0.873200000000     0.436900000000     0.354      
O        O      0.709550000000     0.909333333333     0.474950000000     0.354      
O        O      0.679275000000     0.886233333333     0.029500000000     0.354      
O        O      0.706000000000     0.859300000000     0.066250000000     0.354      
O        O      0.707825000000     0.967800000000     0.819550000000     0.354      
O        O      0.672050000000     0.920200000000     0.827100000000     0.354      
O        O      0.706450000000     0.860933333333     0.826350000000     0.354      
O        O      0.711925000000     0.843366666667     0.874100000000     0.354      
O        O      0.550550000000     0.880000000000     0.931000000000     0.354      
O        O      0.588325000000     0.926733333333     0.925000000000     0.354      
O        O      0.553450000000     0.988300000000     0.924100000000     0.354      
O        O      0.549025000000     0.672533333333     0.876200000000     0.354      
O        O      0.712875000000     0.706533333333     0.813100000000     0.354      
O        O      0.709550000000     0.742666666667     0.775050000000     0.354      
O        O      0.679275000000     0.719566666667     0.720500000000     0.354      
O        O      0.706000000000     0.692633333333     0.683750000000     0.354      
O        O      0.542175000000     0.865533333333     0.569550000000     0.354      
O        O      0.577950000000     0.913133333333     0.577100000000     0.354      
O        O      0.543550000000     0.972400000000     0.576350000000     0.354      
O        O      0.538075000000     0.989966666667     0.624100000000     0.354      
O        O      0.699450000000     0.953333333333     0.681000000000     0.354      
O        O      0.661675000000     0.906600000000     0.675000000000     0.354      
O        O      0.696550000000     0.845033333333     0.674100000000     0.354      
O        O      0.700975000000     0.827466666667     0.626200000000     0.354      
O        O      0.537125000000     0.793466666667     0.563100000000     0.354      
O        O      0.540450000000     0.757333333333     0.525050000000     0.354      
O        O      0.570725000000     0.780433333333     0.970500000000     0.354      
O        O      0.544000000000     0.807366666667     0.933750000000     0.354      
O        O      0.542175000000     0.698866666667     0.680450000000     0.354      
O        O      0.577950000000     0.746466666667     0.672900000000     0.354      
O        O      0.543550000000     0.805733333333     0.673650000000     0.354      
O        O      0.538075000000     0.823300000000     0.625900000000     0.354      
O        O      0.699450000000     0.786666666667     0.569000000000     0.354      
O        O      0.661675000000     0.739933333333     0.575000000000     0.354      
O        O      0.696550000000     0.678366666667     0.575900000000     0.354      
O        O      0.700975000000     0.994133333333     0.623800000000     0.354      
O        O      0.537125000000     0.960133333333     0.686900000000     0.354      
O        O      0.540450000000     0.924000000000     0.724950000000     0.354      
O        O      0.570725000000     0.947100000000     0.779500000000     0.354      
O        O      0.544000000000     0.974033333333     0.816250000000     0.354      
O        O      0.707825000000     0.801133333333     0.930450000000     0.354      
O        O      0.672050000000     0.753533333333     0.922900000000     0.354      
O        O      0.706450000000     0.694266666667     0.923650000000     0.354      
O        O      0.711925000000     0.676700000000     0.875900000000     0.354      
O        O      0.550550000000     0.713333333333     0.819000000000     0.354      
O        O      0.588325000000     0.760066666667     0.825000000000     0.354      
O        O      0.553450000000     0.821633333333     0.825900000000     0.354      
O        O      0.549025000000     0.839200000000     0.873800000000     0.354      
O        O      0.712875000000     0.873200000000     0.936900000000     0.354      
O        O      0.709550000000     0.909333333333     0.974950000000     0.354      
O        O      0.679275000000     0.886233333333     0.529500000000     0.354      
O        O      0.706000000000     0.859300000000     0.566250000000     0.354      
O        O      0.957825000000     0.301133333333     0.319550000000     0.354      
O        O      0.922050000000     0.253533333333     0.327100000000     0.354      
O        O      0.956450000000     0.194266666667     0.326350000000     0.354      
O        O      0.961925000000     0.176700000000     0.374100000000     0.354      
O        O      0.800550000000     0.213333333333     0.431000000000     0.354      
O        O      0.838325000000     0.260066666667     0.425000000000     0.354      
O        O      0.803450000000     0.321633333333     0.424100000000     0.354      
O        O      0.799025000000     0.005866666667     0.376200000000     0.354      
O        O      0.962875000000     0.039866666667     0.313100000000     0.354      
O        O      0.959550000000     0.076000000000     0.275050000000     0.354      
O        O      0.929275000000     0.052900000000     0.220500000000     0.354      
O        O      0.956000000000     0.025966666667     0.183750000000     0.354      
O        O      0.792175000000     0.198866666667     0.069550000000     0.354      
O        O      0.827950000000     0.246466666667     0.077100000000     0.354      
O        O      0.793550000000     0.305733333333     0.076350000000     0.354      
O        O      0.788075000000     0.323300000000     0.124100000000     0.354      
O        O      0.949450000000     0.286666666667     0.181000000000     0.354      
O        O      0.911675000000     0.239933333333     0.175000000000     0.354      
O        O      0.946550000000     0.178366666667     0.174100000000     0.354      
O        O      0.950975000000     0.160800000000     0.126200000000     0.354      
O        O      0.787125000000     0.126800000000     0.063100000000     0.354      
O        O      0.790450000000     0.090666666667     0.025050000000     0.354      
O        O      0.820725000000     0.113766666667     0.470500000000     0.354      
O        O      0.794000000000     0.140700000000     0.433750000000     0.354      
O        O      0.792175000000     0.032200000000     0.180450000000     0.354      
O        O      0.827950000000     0.079800000000     0.172900000000     0.354      
O        O      0.793550000000     0.139066666667     0.173650000000     0.354      
O        O      0.788075000000     0.156633333333     0.125900000000     0.354      
O        O      0.949450000000     0.120000000000     0.069000000000     0.354      
O        O      0.911675000000     0.073266666667     0.075000000000     0.354      
O        O      0.946550000000     0.011700000000     0.075900000000     0.354      
O        O      0.950975000000     0.327466666667     0.123800000000     0.354      
O        O      0.787125000000     0.293466666667     0.186900000000     0.354      
O        O      0.790450000000     0.257333333333     0.224950000000     0.354      
O        O      0.820725000000     0.280433333333     0.279500000000     0.354      
O        O      0.794000000000     0.307366666667     0.316250000000     0.354      
O        O      0.957825000000     0.134466666667     0.430450000000     0.354      
O        O      0.922050000000     0.086866666667     0.422900000000     0.354      
O        O      0.956450000000     0.027600000000     0.423650000000     0.354      
O        O      0.961925000000     0.010033333333     0.375900000000     0.354      
O        O      0.800550000000     0.046666666667     0.319000000000     0.354      
O        O      0.838325000000     0.093400000000     0.325000000000     0.354      
O        O      0.803450000000     0.154966666667     0.325900000000     0.354      
O        O      0.799025000000     0.172533333333     0.373800000000     0.354      
O        O      0.962875000000     0.206533333333     0.436900000000     0.354      
O        O      0.959550000000     0.242666666667     0.474950000000     0.354      
O        O      0.929275000000     0.219566666667     0.029500000000     0.354      
O        O      0.956000000000     0.192633333333     0.066250000000     0.354      
O        O      0.957825000000     0.301133333333     0.819550000000     0.354      
O        O      0.922050000000     0.253533333333     0.827100000000     0.354      
O        O      0.956450000000     0.194266666667     0.826350000000     0.354      
O        O      0.961925000000     0.176700000000     0.874100000000     0.354      
O        O      0.800550000000     0.213333333333     0.931000000000     0.354      
O        O      0.838325000000     0.260066666667     0.925000000000     0.354      
O        O      0.803450000000     0.321633333333     0.924100000000     0.354      
O        O      0.799025000000     0.005866666667     0.876200000000     0.354      
O        O      0.962875000000     0.039866666667     0.813100000000     0.354      
O        O      0.959550000000     0.076000000000     0.775050000000     0.354      
O        O      0.929275000000     0.052900000000     0.720500000000     0.354      
O        O      0.956000000000     0.025966666667     0.683750000000     0.354      
O        O      0.792175000000     0.198866666667     0.569550000000     0.354      
O        O      0.827950000000     0.246466666667     0.577100000000     0.354      
O        O      0.793550000000     0.305733333333     0.576350000000     0.354      
O        O      0.788075000000     0.323300000000     0.624100000000     0.354      
O        O      0.949450000000     0.286666666667     0.681000000000     0.354      
O        O      0.911675000000     0.239933333333     0.675000000000     0.354      
O        O      0.946550000000     0.178366666667     0.674100000000     0.354      
O        O      0.950975000000     0.160800000000     0.626200000000     0.354      
O        O      0.787125000000     0.126800000000     0.563100000000     0.354      
O        O      0.790450000000     0.090666666667     0.525050000000     0.354      
O        O      0.820725000000     0.113766666667     0.970500000000     0.354      
O        O      0.794000000000     0.140700000000     0.933750000000     0.354      
O        O      0.792175000000     0.032200000000     0.680450000000     0.354      
O        O      0.827950000000     0.079800000000     0.672900000000     0.354      
O        O      0.793550000000     0.139066666667     0.673650000000     0.354      
O        O      0.788075000000     0.156633333333     0.625900000000     0.354      
O        O      0.949450000000     0.120000000000     0.569000000000     0.354      
O        O      0.911675000000     0.073266666667     0.575000000000     0.354      
O        O      0.946550000000     0.011700000000     0.575900000000     0.354      
O        O      0.950975000000     0.327466666667     0.623800000000     0.354      
O        O      0.787125000000     0.293466666667     0.686900000000     0.354      
O        O      0.790450000000     0.257333333333     0.724950000000     0.354      
O        O      0.820725000000     0.280433333333     0.779500000000     0.354      
O        O      0.794000000000     0.307366666667     0.816250000000     0.354      
O        O      0.957825000000     0.134466666667     0.930450000000     0.354      
O        O      0.922050000000     0.086866666667     0.922900000000     0.354      
O        O      0.956450000000     0.027600000000     0.923650000000     0.354      
O        O      0.961925000000     0.010033333333     0.875900000000     0.354      
O        O      0.800550000000     0.046666666667     0.819000000000     0.354      
O        O      0.838325000000     0.093400000000     0.825000000000     0.354      
O        O      0.803450000000     0.154966666667     0.825900000000     0.354      
O        O      0.799025000000     0.172533333333     0.873800000000     0.354      
O        O      0.962875000000     0.206533333333     0.936900000000     0.354      
O        O      0.959550000000     0.242666666667     0.974950000000     0.354      
O        O      0.929275000000     0.219566666667     0.529500000000     0.354      
O        O      0.956000000000     0.192633333333     0.566250000000     0.354      
O        O      0.957825000000     0.634466666667     0.319550000000     0.354      
O        O      0.922050000000     0.586866666667     0.327100000000     0.354      
O        O      0.956450000000     0.527600000000     0.326350000000     0.354      
O        O      0.961925000000     0.510033333333     0.374100000000     0.354      
O        O      0.800550000000     0.546666666667     0.431000000000     0.354      
O        O      0.838325000000     0.593400000000     0.425000000000     0.354      
O        O      0.803450000000     0.654966666667     0.424100000000     0.354      
O        O      0.799025000000     0.339200000000     0.376200000000     0.354      
O        O      0.962875000000     0.373200000000     0.313100000000     0.354      
O        O      0.959550000000     0.409333333333     0.275050000000     0.354      
O        O      0.929275000000     0.386233333333     0.220500000000     0.354      
O        O      0.956000000000     0.359300000000     0.183750000000     0.354      
O        O      0.792175000000     0.532200000000     0.069550000000     0.354      
O        O      0.827950000000     0.579800000000     0.077100000000     0.354      
O        O      0.793550000000     0.639066666667     0.076350000000     0.354      
O        O      0.788075000000     0.656633333333     0.124100000000     0.354      
O        O      0.949450000000     0.620000000000     0.181000000000     0.354      
O        O      0.911675000000     0.573266666667     0.175000000000     0.354      
O        O      0.946550000000     0.511700000000     0.174100000000     0.354      
O        O      0.950975000000     0.494133333333     0.126200000000     0.354      
O        O      0.787125000000     0.460133333333     0.063100000000     0.354      
O        O      0.790450000000     0.424000000000     0.025050000000     0.354      
O        O      0.820725000000     0.447100000000     0.470500000000     0.354      
O        O      0.794000000000     0.474033333333     0.433750000000     0.354      
O        O      0.792175000000     0.365533333333     0.180450000000     0.354      
O        O      0.827950000000     0.413133333333     0.172900000000     0.354      
O        O      0.793550000000     0.472400000000     0.173650000000     0.354      
O        O      0.788075000000     0.489966666667     0.125900000000     0.354      
O        O      0.949450000000     0.453333333333     0.069000000000     0.354      
O        O      0.911675000000     0.406600000000     0.075000000000     0.354      
O        O      0.946550000000     0.345033333333     0.075900000000     0.354      
O        O      0.950975000000     0.660800000000     0.123800000000     0.354      
O        O      0.787125000000     0.626800000000     0.186900000000     0.354      
O        O      0.790450000000     0.590666666667     0.224950000000     0.354      
O        O      0.820725000000     0.613766666667     0.279500000000     0.354      
O        O      0.794000000000     0.640700000000     0.316250000000     0.354      
O        O      0.957825000000     0.467800000000     0.430450000000     0.354      
O        O      0.922050000000     0.420200000000     0.422900000000     0.354      
O        O      0.956450000000     0.360933333333     0.423650000000     0.354      
O        O      0.961925000000     0.343366666667     0.375900000000     0.354      
O        O      0.800550000000     0.380000000000     0.319000000000     0.354      
O        O      0.838325000000     0.426733333333     0.325000000000     0.354      
O        O      0.803450000000     0.488300000000     0.325900000000     0.354      
O        O      0.799025000000     0.505866666667     0.373800000000     0.354      
O        O      0.962875000000     0.539866666667     0.436900000000     0.354      
O        O      0.959550000000     0.576000000000     0.474950000000     0.354      
O        O      0.929275000000     0.552900000000     0.029500000000     0.354      
O        O      0.956000000000     0.525966666667     0.066250000000     0.354      
O        O      0.957825000000     0.634466666667     0.819550000000     0.354      
O        O      0.922050000000     0.586866666667     0.827100000000     0.354      
O        O      0.956450000000     0.527600000000     0.826350000000     0.354      
O        O      0.961925000000     0.510033333333     0.874100000000     0.354      
O        O      0.800550000000     0.546666666667     0.931000000000     0.354      
O        O      0.838325000000     0.593400000000     0.925000000000     0.354      
O        O      0.803450000000     0.654966666667     0.924100000000     0.354      
O        O      0.799025000000     0.339200000000     0.876200000000     0.354      
O        O      0.962875000000     0.373200000000     0.813100000000     0.354      
O        O      0.959550000000     0.409333333333     0.775050000000     0.354      
O        O      0.929275000000     0.386233333333     0.720500000000     0.354      
O        O      0.956000000000     0.359300000000     0.683750000000     0.354      
O        O      0.792175000000     0.532200000000     0.569550000000     0.354      
O        O      0.827950000000     0.579800000000     0.577100000000     0.354      
O        O      0.793550000000     0.639066666667     0.576350000000     0.354      
O        O      0.788075000000     0.656633333333     0.624100000000     0.354      
O        O      0.949450000000     0.620000000000     0.681000000000     0.354      
O        O      0.911675000000     0.573266666667     0.675000000000     0.354      
O        O      0.946550000000     0.511700000000     0.674100000000     0.354      
O        O      0.950975000000     0.494133333333     0.626200000000     0.354      
O        O      0.787125000000     0.460133333333     0.563100000000     0.354      
O        O      0.790450000000     0.424000000000     0.525050000000     0.354      
O        O      0.820725000000     0.447100000000     0.970500000000     0.354      
O        O      0.794000000000     0.474033333333     0.933750000000     0.354      
O        O      0.792175000000     0.365533333333     0.680450000000     0.354      
O        O      0.827950000000     0.413133333333     0.672900000000     0.354      
O        O      0.793550000000     0.472400000000     0.673650000000     0.354      
O        O      0.788075000000     0.489966666667     0.625900000000     0.354      
O        O      0.949450000000     0.453333333333     0.569000000000     0.354      
O        O      0.911675000000     0.406600000000     0.575000000000     0.354      
O        O      0.946550000000     0.345033333333     0.575900000000     0.354      
O        O      0.950975000000     0.660800000000     0.623800000000     0.354      
O        O      0.787125000000     0.626800000000     0.686900000000     0.354      
O        O      0.790450000000     0.590666666667     0.724950000000     0.354      
O        O      0.820725000000     0.613766666667     0.779500000000     0.354      
O        O      0.794000000000     0.640700000000     0.816250000000     0.354      
O        O      0.957825000000     0.467800000000     0.930450000000     0.354      
O        O      0.922050000000     0.420200000000     0.922900000000     0.354      
O        O      0.956450000000     0.360933333333     0.923650000000     0.354      
O        O      0.961925000000     0.343366666667     0.875900000000     0.354      
O        O      0.800550000000     0.380000000000     0.819000000000     0.354      
O        O      0.838325000000     0.426733333333     0.825000000000     0.354      
O        O      0.803450000000     0.488300000000     0.825900000000     0.354      
O        O      0.799025000000     0.505866666667     0.873800000000     0.354      
O        O      0.962875000000     0.539866666667     0.936900000000     0.354      
O        O      0.959550000000     0.576000000000     0.974950000000     0.354      
O        O      0.929275000000     0.552900000000     0.529500000000     0.354      
O        O      0.956000000000     0.525966666667     0.566250000000     0.354      
O        O      0.957825000000     0.967800000000     0.319550000000     0.354      
O        O      0.922050000000     0.920200000000     0.327100000000     0.354      
O        O      0.956450000000     0.860933333333     0.326350000000     0.354      
O        O      0.961925000000     0.843366666667     0.374100000000     0.354      
O        O      0.800550000000     0.880000000000     0.431000000000     0.354      
O        O      0.838325000000     0.926733333333     0.425000000000     0.354      
O        O      0.803450000000     0.988300000000     0.424100000000     0.354      
O        O      0.799025000000     0.672533333333     0.376200000000     0.354      
O        O      0.962875000000     0.706533333333     0.313100000000     0.354      
O        O      0.959550000000     0.742666666667     0.275050000000     0.354      
O        O      0.929275000000     0.719566666667     0.220500000000     0.354      
O        O      0.956000000000     0.692633333333     0.183750000000     0.354      
O        O      0.792175000000     0.865533333333     0.069550000000     0.354      
O        O      0.827950000000     0.913133333333     0.077100000000     0.354      
O        O      0.793550000000     0.972400000000     0.076350000000     0.354      
O        O      0.788075000000     0.989966666667     0.124100000000     0.354      
O        O      0.949450000000     0.953333333333     0.181000000000     0.354      
O        O      0.911675000000     0.906600000000     0.175000000000     0.354      
O        O      0.946550000000     0.845033333333     0.174100000000     0.354      
O        O      0.950975000000     0.827466666667     0.126200000000     0.354      
O        O      0.787125000000     0.793466666667     0.063100000000     0.354      
O        O      0.790450000000     0.757333333333     0.025050000000     0.354      
O        O      0.820725000000     0.780433333333     0.470500000000     0.354      
O        O      0.794000000000     0.807366666667     0.433750000000     0.354      
O        O      0.792175000000     0.698866666667     0.180450000000     0.354      
O        O      0.827950000000     0.746466666667     0.172900000000     0.354      
O        O      0.793550000000     0.805733333333     0.173650000000     0.354      
O        O      0.788075000000     0.823300000000     0.125900000000     0.354      
O        O      0.949450000000     0.786666666667     0.069000000000     0.354      
O        O      0.911675000000     0.739933333333     0.075000000000     0.354      
O        O      0.946550000000     0.678366666667     0.075900000000     0.354      
O        O      0.950975000000     0.994133333333     0.123800000000     0.354      
O        O      0.787125000000     0.960133333333     0.186900000000     0.354      
O        O      0.790450000000     0.924000000000     0.224950000000     0.354      
O        O      0.820725000000     0.947100000000     0.279500000000     0.354      
O        O      0.794000000000     0.974033333333     0.316250000000     0.354      
O        O      0.957825000000     0.801133333333     0.430450000000     0.354      
O        O      0.922050000000     0.753533333333     0.422900000000     0.354      
O        O      0.956450000000     0.694266666667     0.423650000000     0.354      
O        O      0.961925000000     0.676700000000     0.375900000000     0.354      
O        O      0.800550000000     0.713333333333     0.319000000000     0.354      
O        O      0.838325000000     0.760066666667     0.325000000000     0.354      
O        O      0.803450000000     0.821633333333     0.325900000000     0.354      
O        O      0.799025000000     0.839200000000     0.373800000000     0.354      
O        O      0.962875000000     0.873200000000     0.436900000000     0.354      
O        O      0.959550000000     0.909333333333     0.474950000000     0.354      
O        O      0.929275000000     0.886233333333     0.029500000000     0.354      
O        O      0.956000000000     0.859300000000     0.066250000000     0.354      
O        O      0.957825000000     0.967800000000     0.819550000000     0.354      
O        O      0.922050000000     0.920200000000     0.827100000000     0.354      
O        O      0.956450000000     0.860933333333     0.826350000000     0.354      
O        O      0.961925000000     0.843366666667     0.874100000000     0.354      
O        O      0.800550000000     0.880000000000     0.931000000000     0.354      
O        O      0.838325000000     0.926733333333     0.925000000000     0.354      
O        O      0.803450000000     0.988300000000     0.924100000000     0.354      
O        O      0.799025000000     0.672533333333     0.876200000000     0.354      
O        O      0.962875000000     0.706533333333     0.813100000000     0.354      
O        O      0.959550000000     0.742666666667     0.775050000000     0.354      
O        O      0.929275000000     0.719566666667     0.720500000000     0.354      
O        O      0.956000000000     0.692633333333     0.683750000000     0.354      
O        O      0.792175000000     0.865533333333     0.569550000000     0.354      
O        O      0.827950000000     0.913133333333     0.577100000000     0.354      
O        O      0.793550000000     0.972400000000     0.576350000000     0.354      
O        O      0.788075000000     0.989966666667     0.624100000000     0.354      
O        O      0.949450000000     0.953333333333     0.681000000000     0.354      
O        O      0.911675000000     0.906600000000     0.675000000000     0.354      
O        O      0.946550000000     0.845033333333     0.674100000000     0.354      
O        O      0.950975000000     0.827466666667     0.626200000000     0.354      
O        O      0.787125000000     0.793466666667     0.563100000000     0.354      
O        O      0.790450000000     0.757333333333     0.525050000000     0.354      
O        O      0.820725000000     0.780433333333     0.970500000000     0.354      
O        O      0.794000000000     0.807366666667     0.933750000000     0.354      
O        O      0.792175000000     0.698866666667     0.680450000000     0.354      
O        O      0.827950000000     0.746466666667     0.672900000000     0.354      
O        O      0.793550000000     0.805733333333     0.673650000000     0.354      
O        O      0.788075000000     0.823300000000     0.625900000000     0.354      
O        O      0.949450000000     0.786666666667     0.569000000000     0.354      
O        O      0.911675000000     0.739933333333     0.575000000000     0.354      
O        O      0.946550000000     0.678366666667     0.575900000000     0.354      
O        O      0.950975000000     0.994133333333     0.623800000000     0.354      
O        O      0.787125000000     0.960133333333     0.686900000000     0.354      
O        O      0.790450000000     0.924000000000     0.724950000000     0.354      
O        O      0.820725000000     0.947100000000     0.779500000000     0.354      
O        O      0.794000000000     0.974033333333     0.816250000000     0.354      
O        O      0.957825000000     0.801133333333     0.930450000000     0.354      
O        O      0.922050000000     0.753533333333     0.922900000000     0.354      
O        O      0.956450000000     0.694266666667     0.923650000000     0.354      
O        O      0.961925000000     0.676700000000     0.875900000000     0.354      
O        O      0.800550000000     0.713333333333     0.819000000000     0.354      
O        O      0.838325000000     0.760066666667     0.825000000000     0.354      
O        O      0.803450000000     0.821633333333     0.825900000000     0.354      
O        O      0.799025000000     0.839200000000     0.873800000000     0.354      
O        O      0.962875000000     0.873200000000     0.936900000000     0.354      
O        O      0.959550000000     0.909333333333     0.974950000000     0.354      
O        O      0.929275000000     0.886233333333     0.529500000000     0.354      
O        O      0.956000000000     0.859300000000     0.566250000000     0.354      


