data_IPIJUM_clean

_audit_creation_method RASPA-1.0
_audit_creation_date 2025-9-8
_audit_author_name ''

_cell_length_a    10.4005
_cell_length_b    10.6486
_cell_length_c    13.6321
_cell_angle_alpha 105.307
_cell_angle_beta  93.835
_cell_angle_gamma 108.935
_cell_volume      36666.4

_symmetry_cell_setting          triclinic
_symmetry_space_group_name_Hall 'P 1'
_symmetry_space_group_name_H-M  'P 1'
_symmetry_Int_Tables_number     1

_symmetry_equiv_pos_as_xyz 'x,y,z'

loop_
_atom_site_label
_atom_site_type_symbol
_atom_site_fract_x
_atom_site_fract_y
_atom_site_fract_z
_atom_site_charge
C        C      0.173400000000     0.297066666667     0.309100000000     0.336      
C        C      0.211066666667     0.332933333333     0.331466666667     0.336      
C        C      0.203966666667     0.035166666667     0.021933333333     0.336      
C        C      0.176866666667     0.255333333333     0.283066666667     0.336      
C        C      0.258966666667     0.000133333333     0.330133333333     0.336      
C        C      0.331433333333     0.209066666667     0.019400000000     0.336      
C        C      0.290733333333     0.171100000000     0.002966666667     0.336      
C        C      0.293033333333     0.129633333333     0.317100000000     0.336      
C        C      0.330100000000     0.256133333333     0.036533333333     0.336      
C        C      0.244300000000     0.173900000000     0.008733333333     0.336      
C        C      0.031266666667     0.018866666667     0.197500000000     0.336      
C        C      0.019666666667     0.047166666667     0.180800000000     0.336      
C        C      0.011500000000     0.303766666667     0.183200000000     0.336      
C        C      0.065933333333     0.042033333333     0.229866666667     0.336      
C        C      0.022066666667     0.269233333333     0.198266666667     0.336      
C        C      0.159933333333     0.036266666667     0.024233333333     0.336      
C        C      0.122266666667     0.000400000000     0.001866666667     0.336      
C        C      0.129366666667     0.298166666667     0.311400000000     0.336      
C        C      0.156466666667     0.078000000000     0.050266666667     0.336      
C        C      0.074366666667     0.333200000000     0.003200000000     0.336      
C        C      0.001900000000     0.124266666667     0.313933333333     0.336      
C        C      0.042600000000     0.162233333333     0.330366666667     0.336      
C        C      0.040300000000     0.203700000000     0.016233333333     0.336      
C        C      0.003233333333     0.077200000000     0.296800000000     0.336      
C        C      0.089033333333     0.159433333333     0.324600000000     0.336      
C        C      0.302066666667     0.314466666667     0.135833333333     0.336      
C        C      0.313666666667     0.286166666667     0.152533333333     0.336      
C        C      0.321833333333     0.029566666667     0.150133333333     0.336      
C        C      0.267400000000     0.291300000000     0.103466666667     0.336      
C        C      0.311266666667     0.064100000000     0.135066666667     0.336      
C        C      0.173400000000     0.297066666667     0.642433333333     0.336      
C        C      0.211066666667     0.332933333333     0.664800000000     0.336      
C        C      0.203966666667     0.035166666667     0.355266666667     0.336      
C        C      0.176866666667     0.255333333333     0.616400000000     0.336      
C        C      0.258966666667     0.000133333333     0.663466666667     0.336      
C        C      0.331433333333     0.209066666667     0.352733333333     0.336      
C        C      0.290733333333     0.171100000000     0.336300000000     0.336      
C        C      0.293033333333     0.129633333333     0.650433333333     0.336      
C        C      0.330100000000     0.256133333333     0.369866666667     0.336      
C        C      0.244300000000     0.173900000000     0.342066666667     0.336      
C        C      0.031266666667     0.018866666667     0.530833333333     0.336      
C        C      0.019666666667     0.047166666667     0.514133333333     0.336      
C        C      0.011500000000     0.303766666667     0.516533333333     0.336      
C        C      0.065933333333     0.042033333333     0.563200000000     0.336      
C        C      0.022066666667     0.269233333333     0.531600000000     0.336      
C        C      0.159933333333     0.036266666667     0.357566666667     0.336      
C        C      0.122266666667     0.000400000000     0.335200000000     0.336      
C        C      0.129366666667     0.298166666667     0.644733333333     0.336      
C        C      0.156466666667     0.078000000000     0.383600000000     0.336      
C        C      0.074366666667     0.333200000000     0.336533333333     0.336      
C        C      0.001900000000     0.124266666667     0.647266666667     0.336      
C        C      0.042600000000     0.162233333333     0.663700000000     0.336      
C        C      0.040300000000     0.203700000000     0.349566666667     0.336      
C        C      0.003233333333     0.077200000000     0.630133333333     0.336      
C        C      0.089033333333     0.159433333333     0.657933333333     0.336      
C        C      0.302066666667     0.314466666667     0.469166666667     0.336      
C        C      0.313666666667     0.286166666667     0.485866666667     0.336      
C        C      0.321833333333     0.029566666667     0.483466666667     0.336      
C        C      0.267400000000     0.291300000000     0.436800000000     0.336      
C        C      0.311266666667     0.064100000000     0.468400000000     0.336      
C        C      0.173400000000     0.297066666667     0.975766666667     0.336      
C        C      0.211066666667     0.332933333333     0.998133333333     0.336      
C        C      0.203966666667     0.035166666667     0.688600000000     0.336      
C        C      0.176866666667     0.255333333333     0.949733333333     0.336      
C        C      0.258966666667     0.000133333333     0.996800000000     0.336      
C        C      0.331433333333     0.209066666667     0.686066666667     0.336      
C        C      0.290733333333     0.171100000000     0.669633333333     0.336      
C        C      0.293033333333     0.129633333333     0.983766666667     0.336      
C        C      0.330100000000     0.256133333333     0.703200000000     0.336      
C        C      0.244300000000     0.173900000000     0.675400000000     0.336      
C        C      0.031266666667     0.018866666667     0.864166666667     0.336      
C        C      0.019666666667     0.047166666667     0.847466666667     0.336      
C        C      0.011500000000     0.303766666667     0.849866666667     0.336      
C        C      0.065933333333     0.042033333333     0.896533333333     0.336      
C        C      0.022066666667     0.269233333333     0.864933333333     0.336      
C        C      0.159933333333     0.036266666667     0.690900000000     0.336      
C        C      0.122266666667     0.000400000000     0.668533333333     0.336      
C        C      0.129366666667     0.298166666667     0.978066666667     0.336      
C        C      0.156466666667     0.078000000000     0.716933333333     0.336      
C        C      0.074366666667     0.333200000000     0.669866666667     0.336      
C        C      0.001900000000     0.124266666667     0.980600000000     0.336      
C        C      0.042600000000     0.162233333333     0.997033333333     0.336      
C        C      0.040300000000     0.203700000000     0.682900000000     0.336      
C        C      0.003233333333     0.077200000000     0.963466666667     0.336      
C        C      0.089033333333     0.159433333333     0.991266666667     0.336      
C        C      0.302066666667     0.314466666667     0.802500000000     0.336      
C        C      0.313666666667     0.286166666667     0.819200000000     0.336      
C        C      0.321833333333     0.029566666667     0.816800000000     0.336      
C        C      0.267400000000     0.291300000000     0.770133333333     0.336      
C        C      0.311266666667     0.064100000000     0.801733333333     0.336      
C        C      0.173400000000     0.630400000000     0.309100000000     0.336      
C        C      0.211066666667     0.666266666667     0.331466666667     0.336      
C        C      0.203966666667     0.368500000000     0.021933333333     0.336      
C        C      0.176866666667     0.588666666667     0.283066666667     0.336      
C        C      0.258966666667     0.333466666667     0.330133333333     0.336      
C        C      0.331433333333     0.542400000000     0.019400000000     0.336      
C        C      0.290733333333     0.504433333333     0.002966666667     0.336      
C        C      0.293033333333     0.462966666667     0.317100000000     0.336      
C        C      0.330100000000     0.589466666667     0.036533333333     0.336      
C        C      0.244300000000     0.507233333333     0.008733333333     0.336      
C        C      0.031266666667     0.352200000000     0.197500000000     0.336      
C        C      0.019666666667     0.380500000000     0.180800000000     0.336      
C        C      0.011500000000     0.637100000000     0.183200000000     0.336      
C        C      0.065933333333     0.375366666667     0.229866666667     0.336      
C        C      0.022066666667     0.602566666667     0.198266666667     0.336      
C        C      0.159933333333     0.369600000000     0.024233333333     0.336      
C        C      0.122266666667     0.333733333333     0.001866666667     0.336      
C        C      0.129366666667     0.631500000000     0.311400000000     0.336      
C        C      0.156466666667     0.411333333333     0.050266666667     0.336      
C        C      0.074366666667     0.666533333333     0.003200000000     0.336      
C        C      0.001900000000     0.457600000000     0.313933333333     0.336      
C        C      0.042600000000     0.495566666667     0.330366666667     0.336      
C        C      0.040300000000     0.537033333333     0.016233333333     0.336      
C        C      0.003233333333     0.410533333333     0.296800000000     0.336      
C        C      0.089033333333     0.492766666667     0.324600000000     0.336      
C        C      0.302066666667     0.647800000000     0.135833333333     0.336      
C        C      0.313666666667     0.619500000000     0.152533333333     0.336      
C        C      0.321833333333     0.362900000000     0.150133333333     0.336      
C        C      0.267400000000     0.624633333333     0.103466666667     0.336      
C        C      0.311266666667     0.397433333333     0.135066666667     0.336      
C        C      0.173400000000     0.630400000000     0.642433333333     0.336      
C        C      0.211066666667     0.666266666667     0.664800000000     0.336      
C        C      0.203966666667     0.368500000000     0.355266666667     0.336      
C        C      0.176866666667     0.588666666667     0.616400000000     0.336      
C        C      0.258966666667     0.333466666667     0.663466666667     0.336      
C        C      0.331433333333     0.542400000000     0.352733333333     0.336      
C        C      0.290733333333     0.504433333333     0.336300000000     0.336      
C        C      0.293033333333     0.462966666667     0.650433333333     0.336      
C        C      0.330100000000     0.589466666667     0.369866666667     0.336      
C        C      0.244300000000     0.507233333333     0.342066666667     0.336      
C        C      0.031266666667     0.352200000000     0.530833333333     0.336      
C        C      0.019666666667     0.380500000000     0.514133333333     0.336      
C        C      0.011500000000     0.637100000000     0.516533333333     0.336      
C        C      0.065933333333     0.375366666667     0.563200000000     0.336      
C        C      0.022066666667     0.602566666667     0.531600000000     0.336      
C        C      0.159933333333     0.369600000000     0.357566666667     0.336      
C        C      0.122266666667     0.333733333333     0.335200000000     0.336      
C        C      0.129366666667     0.631500000000     0.644733333333     0.336      
C        C      0.156466666667     0.411333333333     0.383600000000     0.336      
C        C      0.074366666667     0.666533333333     0.336533333333     0.336      
C        C      0.001900000000     0.457600000000     0.647266666667     0.336      
C        C      0.042600000000     0.495566666667     0.663700000000     0.336      
C        C      0.040300000000     0.537033333333     0.349566666667     0.336      
C        C      0.003233333333     0.410533333333     0.630133333333     0.336      
C        C      0.089033333333     0.492766666667     0.657933333333     0.336      
C        C      0.302066666667     0.647800000000     0.469166666667     0.336      
C        C      0.313666666667     0.619500000000     0.485866666667     0.336      
C        C      0.321833333333     0.362900000000     0.483466666667     0.336      
C        C      0.267400000000     0.624633333333     0.436800000000     0.336      
C        C      0.311266666667     0.397433333333     0.468400000000     0.336      
C        C      0.173400000000     0.630400000000     0.975766666667     0.336      
C        C      0.211066666667     0.666266666667     0.998133333333     0.336      
C        C      0.203966666667     0.368500000000     0.688600000000     0.336      
C        C      0.176866666667     0.588666666667     0.949733333333     0.336      
C        C      0.258966666667     0.333466666667     0.996800000000     0.336      
C        C      0.331433333333     0.542400000000     0.686066666667     0.336      
C        C      0.290733333333     0.504433333333     0.669633333333     0.336      
C        C      0.293033333333     0.462966666667     0.983766666667     0.336      
C        C      0.330100000000     0.589466666667     0.703200000000     0.336      
C        C      0.244300000000     0.507233333333     0.675400000000     0.336      
C        C      0.031266666667     0.352200000000     0.864166666667     0.336      
C        C      0.019666666667     0.380500000000     0.847466666667     0.336      
C        C      0.011500000000     0.637100000000     0.849866666667     0.336      
C        C      0.065933333333     0.375366666667     0.896533333333     0.336      
C        C      0.022066666667     0.602566666667     0.864933333333     0.336      
C        C      0.159933333333     0.369600000000     0.690900000000     0.336      
C        C      0.122266666667     0.333733333333     0.668533333333     0.336      
C        C      0.129366666667     0.631500000000     0.978066666667     0.336      
C        C      0.156466666667     0.411333333333     0.716933333333     0.336      
C        C      0.074366666667     0.666533333333     0.669866666667     0.336      
C        C      0.001900000000     0.457600000000     0.980600000000     0.336      
C        C      0.042600000000     0.495566666667     0.997033333333     0.336      
C        C      0.040300000000     0.537033333333     0.682900000000     0.336      
C        C      0.003233333333     0.410533333333     0.963466666667     0.336      
C        C      0.089033333333     0.492766666667     0.991266666667     0.336      
C        C      0.302066666667     0.647800000000     0.802500000000     0.336      
C        C      0.313666666667     0.619500000000     0.819200000000     0.336      
C        C      0.321833333333     0.362900000000     0.816800000000     0.336      
C        C      0.267400000000     0.624633333333     0.770133333333     0.336      
C        C      0.311266666667     0.397433333333     0.801733333333     0.336      
C        C      0.173400000000     0.963733333333     0.309100000000     0.336      
C        C      0.211066666667     0.999600000000     0.331466666667     0.336      
C        C      0.203966666667     0.701833333333     0.021933333333     0.336      
C        C      0.176866666667     0.922000000000     0.283066666667     0.336      
C        C      0.258966666667     0.666800000000     0.330133333333     0.336      
C        C      0.331433333333     0.875733333333     0.019400000000     0.336      
C        C      0.290733333333     0.837766666667     0.002966666667     0.336      
C        C      0.293033333333     0.796300000000     0.317100000000     0.336      
C        C      0.330100000000     0.922800000000     0.036533333333     0.336      
C        C      0.244300000000     0.840566666667     0.008733333333     0.336      
C        C      0.031266666667     0.685533333333     0.197500000000     0.336      
C        C      0.019666666667     0.713833333333     0.180800000000     0.336      
C        C      0.011500000000     0.970433333333     0.183200000000     0.336      
C        C      0.065933333333     0.708700000000     0.229866666667     0.336      
C        C      0.022066666667     0.935900000000     0.198266666667     0.336      
C        C      0.159933333333     0.702933333333     0.024233333333     0.336      
C        C      0.122266666667     0.667066666667     0.001866666667     0.336      
C        C      0.129366666667     0.964833333333     0.311400000000     0.336      
C        C      0.156466666667     0.744666666667     0.050266666667     0.336      
C        C      0.074366666667     0.999866666667     0.003200000000     0.336      
C        C      0.001900000000     0.790933333333     0.313933333333     0.336      
C        C      0.042600000000     0.828900000000     0.330366666667     0.336      
C        C      0.040300000000     0.870366666667     0.016233333333     0.336      
C        C      0.003233333333     0.743866666667     0.296800000000     0.336      
C        C      0.089033333333     0.826100000000     0.324600000000     0.336      
C        C      0.302066666667     0.981133333333     0.135833333333     0.336      
C        C      0.313666666667     0.952833333333     0.152533333333     0.336      
C        C      0.321833333333     0.696233333333     0.150133333333     0.336      
C        C      0.267400000000     0.957966666667     0.103466666667     0.336      
C        C      0.311266666667     0.730766666667     0.135066666667     0.336      
C        C      0.173400000000     0.963733333333     0.642433333333     0.336      
C        C      0.211066666667     0.999600000000     0.664800000000     0.336      
C        C      0.203966666667     0.701833333333     0.355266666667     0.336      
C        C      0.176866666667     0.922000000000     0.616400000000     0.336      
C        C      0.258966666667     0.666800000000     0.663466666667     0.336      
C        C      0.331433333333     0.875733333333     0.352733333333     0.336      
C        C      0.290733333333     0.837766666667     0.336300000000     0.336      
C        C      0.293033333333     0.796300000000     0.650433333333     0.336      
C        C      0.330100000000     0.922800000000     0.369866666667     0.336      
C        C      0.244300000000     0.840566666667     0.342066666667     0.336      
C        C      0.031266666667     0.685533333333     0.530833333333     0.336      
C        C      0.019666666667     0.713833333333     0.514133333333     0.336      
C        C      0.011500000000     0.970433333333     0.516533333333     0.336      
C        C      0.065933333333     0.708700000000     0.563200000000     0.336      
C        C      0.022066666667     0.935900000000     0.531600000000     0.336      
C        C      0.159933333333     0.702933333333     0.357566666667     0.336      
C        C      0.122266666667     0.667066666667     0.335200000000     0.336      
C        C      0.129366666667     0.964833333333     0.644733333333     0.336      
C        C      0.156466666667     0.744666666667     0.383600000000     0.336      
C        C      0.074366666667     0.999866666667     0.336533333333     0.336      
C        C      0.001900000000     0.790933333333     0.647266666667     0.336      
C        C      0.042600000000     0.828900000000     0.663700000000     0.336      
C        C      0.040300000000     0.870366666667     0.349566666667     0.336      
C        C      0.003233333333     0.743866666667     0.630133333333     0.336      
C        C      0.089033333333     0.826100000000     0.657933333333     0.336      
C        C      0.302066666667     0.981133333333     0.469166666667     0.336      
C        C      0.313666666667     0.952833333333     0.485866666667     0.336      
C        C      0.321833333333     0.696233333333     0.483466666667     0.336      
C        C      0.267400000000     0.957966666667     0.436800000000     0.336      
C        C      0.311266666667     0.730766666667     0.468400000000     0.336      
C        C      0.173400000000     0.963733333333     0.975766666667     0.336      
C        C      0.211066666667     0.999600000000     0.998133333333     0.336      
C        C      0.203966666667     0.701833333333     0.688600000000     0.336      
C        C      0.176866666667     0.922000000000     0.949733333333     0.336      
C        C      0.258966666667     0.666800000000     0.996800000000     0.336      
C        C      0.331433333333     0.875733333333     0.686066666667     0.336      
C        C      0.290733333333     0.837766666667     0.669633333333     0.336      
C        C      0.293033333333     0.796300000000     0.983766666667     0.336      
C        C      0.330100000000     0.922800000000     0.703200000000     0.336      
C        C      0.244300000000     0.840566666667     0.675400000000     0.336      
C        C      0.031266666667     0.685533333333     0.864166666667     0.336      
C        C      0.019666666667     0.713833333333     0.847466666667     0.336      
C        C      0.011500000000     0.970433333333     0.849866666667     0.336      
C        C      0.065933333333     0.708700000000     0.896533333333     0.336      
C        C      0.022066666667     0.935900000000     0.864933333333     0.336      
C        C      0.159933333333     0.702933333333     0.690900000000     0.336      
C        C      0.122266666667     0.667066666667     0.668533333333     0.336      
C        C      0.129366666667     0.964833333333     0.978066666667     0.336      
C        C      0.156466666667     0.744666666667     0.716933333333     0.336      
C        C      0.074366666667     0.999866666667     0.669866666667     0.336      
C        C      0.001900000000     0.790933333333     0.980600000000     0.336      
C        C      0.042600000000     0.828900000000     0.997033333333     0.336      
C        C      0.040300000000     0.870366666667     0.682900000000     0.336      
C        C      0.003233333333     0.743866666667     0.963466666667     0.336      
C        C      0.089033333333     0.826100000000     0.991266666667     0.336      
C        C      0.302066666667     0.981133333333     0.802500000000     0.336      
C        C      0.313666666667     0.952833333333     0.819200000000     0.336      
C        C      0.321833333333     0.696233333333     0.816800000000     0.336      
C        C      0.267400000000     0.957966666667     0.770133333333     0.336      
C        C      0.311266666667     0.730766666667     0.801733333333     0.336      
C        C      0.506733333333     0.297066666667     0.309100000000     0.336      
C        C      0.544400000000     0.332933333333     0.331466666667     0.336      
C        C      0.537300000000     0.035166666667     0.021933333333     0.336      
C        C      0.510200000000     0.255333333333     0.283066666667     0.336      
C        C      0.592300000000     0.000133333333     0.330133333333     0.336      
C        C      0.664766666667     0.209066666667     0.019400000000     0.336      
C        C      0.624066666667     0.171100000000     0.002966666667     0.336      
C        C      0.626366666667     0.129633333333     0.317100000000     0.336      
C        C      0.663433333333     0.256133333333     0.036533333333     0.336      
C        C      0.577633333333     0.173900000000     0.008733333333     0.336      
C        C      0.364600000000     0.018866666667     0.197500000000     0.336      
C        C      0.353000000000     0.047166666667     0.180800000000     0.336      
C        C      0.344833333333     0.303766666667     0.183200000000     0.336      
C        C      0.399266666667     0.042033333333     0.229866666667     0.336      
C        C      0.355400000000     0.269233333333     0.198266666667     0.336      
C        C      0.493266666667     0.036266666667     0.024233333333     0.336      
C        C      0.455600000000     0.000400000000     0.001866666667     0.336      
C        C      0.462700000000     0.298166666667     0.311400000000     0.336      
C        C      0.489800000000     0.078000000000     0.050266666667     0.336      
C        C      0.407700000000     0.333200000000     0.003200000000     0.336      
C        C      0.335233333333     0.124266666667     0.313933333333     0.336      
C        C      0.375933333333     0.162233333333     0.330366666667     0.336      
C        C      0.373633333333     0.203700000000     0.016233333333     0.336      
C        C      0.336566666667     0.077200000000     0.296800000000     0.336      
C        C      0.422366666667     0.159433333333     0.324600000000     0.336      
C        C      0.635400000000     0.314466666667     0.135833333333     0.336      
C        C      0.647000000000     0.286166666667     0.152533333333     0.336      
C        C      0.655166666667     0.029566666667     0.150133333333     0.336      
C        C      0.600733333333     0.291300000000     0.103466666667     0.336      
C        C      0.644600000000     0.064100000000     0.135066666667     0.336      
C        C      0.506733333333     0.297066666667     0.642433333333     0.336      
C        C      0.544400000000     0.332933333333     0.664800000000     0.336      
C        C      0.537300000000     0.035166666667     0.355266666667     0.336      
C        C      0.510200000000     0.255333333333     0.616400000000     0.336      
C        C      0.592300000000     0.000133333333     0.663466666667     0.336      
C        C      0.664766666667     0.209066666667     0.352733333333     0.336      
C        C      0.624066666667     0.171100000000     0.336300000000     0.336      
C        C      0.626366666667     0.129633333333     0.650433333333     0.336      
C        C      0.663433333333     0.256133333333     0.369866666667     0.336      
C        C      0.577633333333     0.173900000000     0.342066666667     0.336      
C        C      0.364600000000     0.018866666667     0.530833333333     0.336      
C        C      0.353000000000     0.047166666667     0.514133333333     0.336      
C        C      0.344833333333     0.303766666667     0.516533333333     0.336      
C        C      0.399266666667     0.042033333333     0.563200000000     0.336      
C        C      0.355400000000     0.269233333333     0.531600000000     0.336      
C        C      0.493266666667     0.036266666667     0.357566666667     0.336      
C        C      0.455600000000     0.000400000000     0.335200000000     0.336      
C        C      0.462700000000     0.298166666667     0.644733333333     0.336      
C        C      0.489800000000     0.078000000000     0.383600000000     0.336      
C        C      0.407700000000     0.333200000000     0.336533333333     0.336      
C        C      0.335233333333     0.124266666667     0.647266666667     0.336      
C        C      0.375933333333     0.162233333333     0.663700000000     0.336      
C        C      0.373633333333     0.203700000000     0.349566666667     0.336      
C        C      0.336566666667     0.077200000000     0.630133333333     0.336      
C        C      0.422366666667     0.159433333333     0.657933333333     0.336      
C        C      0.635400000000     0.314466666667     0.469166666667     0.336      
C        C      0.647000000000     0.286166666667     0.485866666667     0.336      
C        C      0.655166666667     0.029566666667     0.483466666667     0.336      
C        C      0.600733333333     0.291300000000     0.436800000000     0.336      
C        C      0.644600000000     0.064100000000     0.468400000000     0.336      
C        C      0.506733333333     0.297066666667     0.975766666667     0.336      
C        C      0.544400000000     0.332933333333     0.998133333333     0.336      
C        C      0.537300000000     0.035166666667     0.688600000000     0.336      
C        C      0.510200000000     0.255333333333     0.949733333333     0.336      
C        C      0.592300000000     0.000133333333     0.996800000000     0.336      
C        C      0.664766666667     0.209066666667     0.686066666667     0.336      
C        C      0.624066666667     0.171100000000     0.669633333333     0.336      
C        C      0.626366666667     0.129633333333     0.983766666667     0.336      
C        C      0.663433333333     0.256133333333     0.703200000000     0.336      
C        C      0.577633333333     0.173900000000     0.675400000000     0.336      
C        C      0.364600000000     0.018866666667     0.864166666667     0.336      
C        C      0.353000000000     0.047166666667     0.847466666667     0.336      
C        C      0.344833333333     0.303766666667     0.849866666667     0.336      
C        C      0.399266666667     0.042033333333     0.896533333333     0.336      
C        C      0.355400000000     0.269233333333     0.864933333333     0.336      
C        C      0.493266666667     0.036266666667     0.690900000000     0.336      
C        C      0.455600000000     0.000400000000     0.668533333333     0.336      
C        C      0.462700000000     0.298166666667     0.978066666667     0.336      
C        C      0.489800000000     0.078000000000     0.716933333333     0.336      
C        C      0.407700000000     0.333200000000     0.669866666667     0.336      
C        C      0.335233333333     0.124266666667     0.980600000000     0.336      
C        C      0.375933333333     0.162233333333     0.997033333333     0.336      
C        C      0.373633333333     0.203700000000     0.682900000000     0.336      
C        C      0.336566666667     0.077200000000     0.963466666667     0.336      
C        C      0.422366666667     0.159433333333     0.991266666667     0.336      
C        C      0.635400000000     0.314466666667     0.802500000000     0.336      
C        C      0.647000000000     0.286166666667     0.819200000000     0.336      
C        C      0.655166666667     0.029566666667     0.816800000000     0.336      
C        C      0.600733333333     0.291300000000     0.770133333333     0.336      
C        C      0.644600000000     0.064100000000     0.801733333333     0.336      
C        C      0.506733333333     0.630400000000     0.309100000000     0.336      
C        C      0.544400000000     0.666266666667     0.331466666667     0.336      
C        C      0.537300000000     0.368500000000     0.021933333333     0.336      
C        C      0.510200000000     0.588666666667     0.283066666667     0.336      
C        C      0.592300000000     0.333466666667     0.330133333333     0.336      
C        C      0.664766666667     0.542400000000     0.019400000000     0.336      
C        C      0.624066666667     0.504433333333     0.002966666667     0.336      
C        C      0.626366666667     0.462966666667     0.317100000000     0.336      
C        C      0.663433333333     0.589466666667     0.036533333333     0.336      
C        C      0.577633333333     0.507233333333     0.008733333333     0.336      
C        C      0.364600000000     0.352200000000     0.197500000000     0.336      
C        C      0.353000000000     0.380500000000     0.180800000000     0.336      
C        C      0.344833333333     0.637100000000     0.183200000000     0.336      
C        C      0.399266666667     0.375366666667     0.229866666667     0.336      
C        C      0.355400000000     0.602566666667     0.198266666667     0.336      
C        C      0.493266666667     0.369600000000     0.024233333333     0.336      
C        C      0.455600000000     0.333733333333     0.001866666667     0.336      
C        C      0.462700000000     0.631500000000     0.311400000000     0.336      
C        C      0.489800000000     0.411333333333     0.050266666667     0.336      
C        C      0.407700000000     0.666533333333     0.003200000000     0.336      
C        C      0.335233333333     0.457600000000     0.313933333333     0.336      
C        C      0.375933333333     0.495566666667     0.330366666667     0.336      
C        C      0.373633333333     0.537033333333     0.016233333333     0.336      
C        C      0.336566666667     0.410533333333     0.296800000000     0.336      
C        C      0.422366666667     0.492766666667     0.324600000000     0.336      
C        C      0.635400000000     0.647800000000     0.135833333333     0.336      
C        C      0.647000000000     0.619500000000     0.152533333333     0.336      
C        C      0.655166666667     0.362900000000     0.150133333333     0.336      
C        C      0.600733333333     0.624633333333     0.103466666667     0.336      
C        C      0.644600000000     0.397433333333     0.135066666667     0.336      
C        C      0.506733333333     0.630400000000     0.642433333333     0.336      
C        C      0.544400000000     0.666266666667     0.664800000000     0.336      
C        C      0.537300000000     0.368500000000     0.355266666667     0.336      
C        C      0.510200000000     0.588666666667     0.616400000000     0.336      
C        C      0.592300000000     0.333466666667     0.663466666667     0.336      
C        C      0.664766666667     0.542400000000     0.352733333333     0.336      
C        C      0.624066666667     0.504433333333     0.336300000000     0.336      
C        C      0.626366666667     0.462966666667     0.650433333333     0.336      
C        C      0.663433333333     0.589466666667     0.369866666667     0.336      
C        C      0.577633333333     0.507233333333     0.342066666667     0.336      
C        C      0.364600000000     0.352200000000     0.530833333333     0.336      
C        C      0.353000000000     0.380500000000     0.514133333333     0.336      
C        C      0.344833333333     0.637100000000     0.516533333333     0.336      
C        C      0.399266666667     0.375366666667     0.563200000000     0.336      
C        C      0.355400000000     0.602566666667     0.531600000000     0.336      
C        C      0.493266666667     0.369600000000     0.357566666667     0.336      
C        C      0.455600000000     0.333733333333     0.335200000000     0.336      
C        C      0.462700000000     0.631500000000     0.644733333333     0.336      
C        C      0.489800000000     0.411333333333     0.383600000000     0.336      
C        C      0.407700000000     0.666533333333     0.336533333333     0.336      
C        C      0.335233333333     0.457600000000     0.647266666667     0.336      
C        C      0.375933333333     0.495566666667     0.663700000000     0.336      
C        C      0.373633333333     0.537033333333     0.349566666667     0.336      
C        C      0.336566666667     0.410533333333     0.630133333333     0.336      
C        C      0.422366666667     0.492766666667     0.657933333333     0.336      
C        C      0.635400000000     0.647800000000     0.469166666667     0.336      
C        C      0.647000000000     0.619500000000     0.485866666667     0.336      
C        C      0.655166666667     0.362900000000     0.483466666667     0.336      
C        C      0.600733333333     0.624633333333     0.436800000000     0.336      
C        C      0.644600000000     0.397433333333     0.468400000000     0.336      
C        C      0.506733333333     0.630400000000     0.975766666667     0.336      
C        C      0.544400000000     0.666266666667     0.998133333333     0.336      
C        C      0.537300000000     0.368500000000     0.688600000000     0.336      
C        C      0.510200000000     0.588666666667     0.949733333333     0.336      
C        C      0.592300000000     0.333466666667     0.996800000000     0.336      
C        C      0.664766666667     0.542400000000     0.686066666667     0.336      
C        C      0.624066666667     0.504433333333     0.669633333333     0.336      
C        C      0.626366666667     0.462966666667     0.983766666667     0.336      
C        C      0.663433333333     0.589466666667     0.703200000000     0.336      
C        C      0.577633333333     0.507233333333     0.675400000000     0.336      
C        C      0.364600000000     0.352200000000     0.864166666667     0.336      
C        C      0.353000000000     0.380500000000     0.847466666667     0.336      
C        C      0.344833333333     0.637100000000     0.849866666667     0.336      
C        C      0.399266666667     0.375366666667     0.896533333333     0.336      
C        C      0.355400000000     0.602566666667     0.864933333333     0.336      
C        C      0.493266666667     0.369600000000     0.690900000000     0.336      
C        C      0.455600000000     0.333733333333     0.668533333333     0.336      
C        C      0.462700000000     0.631500000000     0.978066666667     0.336      
C        C      0.489800000000     0.411333333333     0.716933333333     0.336      
C        C      0.407700000000     0.666533333333     0.669866666667     0.336      
C        C      0.335233333333     0.457600000000     0.980600000000     0.336      
C        C      0.375933333333     0.495566666667     0.997033333333     0.336      
C        C      0.373633333333     0.537033333333     0.682900000000     0.336      
C        C      0.336566666667     0.410533333333     0.963466666667     0.336      
C        C      0.422366666667     0.492766666667     0.991266666667     0.336      
C        C      0.635400000000     0.647800000000     0.802500000000     0.336      
C        C      0.647000000000     0.619500000000     0.819200000000     0.336      
C        C      0.655166666667     0.362900000000     0.816800000000     0.336      
C        C      0.600733333333     0.624633333333     0.770133333333     0.336      
C        C      0.644600000000     0.397433333333     0.801733333333     0.336      
C        C      0.506733333333     0.963733333333     0.309100000000     0.336      
C        C      0.544400000000     0.999600000000     0.331466666667     0.336      
C        C      0.537300000000     0.701833333333     0.021933333333     0.336      
C        C      0.510200000000     0.922000000000     0.283066666667     0.336      
C        C      0.592300000000     0.666800000000     0.330133333333     0.336      
C        C      0.664766666667     0.875733333333     0.019400000000     0.336      
C        C      0.624066666667     0.837766666667     0.002966666667     0.336      
C        C      0.626366666667     0.796300000000     0.317100000000     0.336      
C        C      0.663433333333     0.922800000000     0.036533333333     0.336      
C        C      0.577633333333     0.840566666667     0.008733333333     0.336      
C        C      0.364600000000     0.685533333333     0.197500000000     0.336      
C        C      0.353000000000     0.713833333333     0.180800000000     0.336      
C        C      0.344833333333     0.970433333333     0.183200000000     0.336      
C        C      0.399266666667     0.708700000000     0.229866666667     0.336      
C        C      0.355400000000     0.935900000000     0.198266666667     0.336      
C        C      0.493266666667     0.702933333333     0.024233333333     0.336      
C        C      0.455600000000     0.667066666667     0.001866666667     0.336      
C        C      0.462700000000     0.964833333333     0.311400000000     0.336      
C        C      0.489800000000     0.744666666667     0.050266666667     0.336      
C        C      0.407700000000     0.999866666667     0.003200000000     0.336      
C        C      0.335233333333     0.790933333333     0.313933333333     0.336      
C        C      0.375933333333     0.828900000000     0.330366666667     0.336      
C        C      0.373633333333     0.870366666667     0.016233333333     0.336      
C        C      0.336566666667     0.743866666667     0.296800000000     0.336      
C        C      0.422366666667     0.826100000000     0.324600000000     0.336      
C        C      0.635400000000     0.981133333333     0.135833333333     0.336      
C        C      0.647000000000     0.952833333333     0.152533333333     0.336      
C        C      0.655166666667     0.696233333333     0.150133333333     0.336      
C        C      0.600733333333     0.957966666667     0.103466666667     0.336      
C        C      0.644600000000     0.730766666667     0.135066666667     0.336      
C        C      0.506733333333     0.963733333333     0.642433333333     0.336      
C        C      0.544400000000     0.999600000000     0.664800000000     0.336      
C        C      0.537300000000     0.701833333333     0.355266666667     0.336      
C        C      0.510200000000     0.922000000000     0.616400000000     0.336      
C        C      0.592300000000     0.666800000000     0.663466666667     0.336      
C        C      0.664766666667     0.875733333333     0.352733333333     0.336      
C        C      0.624066666667     0.837766666667     0.336300000000     0.336      
C        C      0.626366666667     0.796300000000     0.650433333333     0.336      
C        C      0.663433333333     0.922800000000     0.369866666667     0.336      
C        C      0.577633333333     0.840566666667     0.342066666667     0.336      
C        C      0.364600000000     0.685533333333     0.530833333333     0.336      
C        C      0.353000000000     0.713833333333     0.514133333333     0.336      
C        C      0.344833333333     0.970433333333     0.516533333333     0.336      
C        C      0.399266666667     0.708700000000     0.563200000000     0.336      
C        C      0.355400000000     0.935900000000     0.531600000000     0.336      
C        C      0.493266666667     0.702933333333     0.357566666667     0.336      
C        C      0.455600000000     0.667066666667     0.335200000000     0.336      
C        C      0.462700000000     0.964833333333     0.644733333333     0.336      
C        C      0.489800000000     0.744666666667     0.383600000000     0.336      
C        C      0.407700000000     0.999866666667     0.336533333333     0.336      
C        C      0.335233333333     0.790933333333     0.647266666667     0.336      
C        C      0.375933333333     0.828900000000     0.663700000000     0.336      
C        C      0.373633333333     0.870366666667     0.349566666667     0.336      
C        C      0.336566666667     0.743866666667     0.630133333333     0.336      
C        C      0.422366666667     0.826100000000     0.657933333333     0.336      
C        C      0.635400000000     0.981133333333     0.469166666667     0.336      
C        C      0.647000000000     0.952833333333     0.485866666667     0.336      
C        C      0.655166666667     0.696233333333     0.483466666667     0.336      
C        C      0.600733333333     0.957966666667     0.436800000000     0.336      
C        C      0.644600000000     0.730766666667     0.468400000000     0.336      
C        C      0.506733333333     0.963733333333     0.975766666667     0.336      
C        C      0.544400000000     0.999600000000     0.998133333333     0.336      
C        C      0.537300000000     0.701833333333     0.688600000000     0.336      
C        C      0.510200000000     0.922000000000     0.949733333333     0.336      
C        C      0.592300000000     0.666800000000     0.996800000000     0.336      
C        C      0.664766666667     0.875733333333     0.686066666667     0.336      
C        C      0.624066666667     0.837766666667     0.669633333333     0.336      
C        C      0.626366666667     0.796300000000     0.983766666667     0.336      
C        C      0.663433333333     0.922800000000     0.703200000000     0.336      
C        C      0.577633333333     0.840566666667     0.675400000000     0.336      
C        C      0.364600000000     0.685533333333     0.864166666667     0.336      
C        C      0.353000000000     0.713833333333     0.847466666667     0.336      
C        C      0.344833333333     0.970433333333     0.849866666667     0.336      
C        C      0.399266666667     0.708700000000     0.896533333333     0.336      
C        C      0.355400000000     0.935900000000     0.864933333333     0.336      
C        C      0.493266666667     0.702933333333     0.690900000000     0.336      
C        C      0.455600000000     0.667066666667     0.668533333333     0.336      
C        C      0.462700000000     0.964833333333     0.978066666667     0.336      
C        C      0.489800000000     0.744666666667     0.716933333333     0.336      
C        C      0.407700000000     0.999866666667     0.669866666667     0.336      
C        C      0.335233333333     0.790933333333     0.980600000000     0.336      
C        C      0.375933333333     0.828900000000     0.997033333333     0.336      
C        C      0.373633333333     0.870366666667     0.682900000000     0.336      
C        C      0.336566666667     0.743866666667     0.963466666667     0.336      
C        C      0.422366666667     0.826100000000     0.991266666667     0.336      
C        C      0.635400000000     0.981133333333     0.802500000000     0.336      
C        C      0.647000000000     0.952833333333     0.819200000000     0.336      
C        C      0.655166666667     0.696233333333     0.816800000000     0.336      
C        C      0.600733333333     0.957966666667     0.770133333333     0.336      
C        C      0.644600000000     0.730766666667     0.801733333333     0.336      
C        C      0.840066666667     0.297066666667     0.309100000000     0.336      
C        C      0.877733333333     0.332933333333     0.331466666667     0.336      
C        C      0.870633333333     0.035166666667     0.021933333333     0.336      
C        C      0.843533333333     0.255333333333     0.283066666667     0.336      
C        C      0.925633333333     0.000133333333     0.330133333333     0.336      
C        C      0.998100000000     0.209066666667     0.019400000000     0.336      
C        C      0.957400000000     0.171100000000     0.002966666667     0.336      
C        C      0.959700000000     0.129633333333     0.317100000000     0.336      
C        C      0.996766666667     0.256133333333     0.036533333333     0.336      
C        C      0.910966666667     0.173900000000     0.008733333333     0.336      
C        C      0.697933333333     0.018866666667     0.197500000000     0.336      
C        C      0.686333333333     0.047166666667     0.180800000000     0.336      
C        C      0.678166666667     0.303766666667     0.183200000000     0.336      
C        C      0.732600000000     0.042033333333     0.229866666667     0.336      
C        C      0.688733333333     0.269233333333     0.198266666667     0.336      
C        C      0.826600000000     0.036266666667     0.024233333333     0.336      
C        C      0.788933333333     0.000400000000     0.001866666667     0.336      
C        C      0.796033333333     0.298166666667     0.311400000000     0.336      
C        C      0.823133333333     0.078000000000     0.050266666667     0.336      
C        C      0.741033333333     0.333200000000     0.003200000000     0.336      
C        C      0.668566666667     0.124266666667     0.313933333333     0.336      
C        C      0.709266666667     0.162233333333     0.330366666667     0.336      
C        C      0.706966666667     0.203700000000     0.016233333333     0.336      
C        C      0.669900000000     0.077200000000     0.296800000000     0.336      
C        C      0.755700000000     0.159433333333     0.324600000000     0.336      
C        C      0.968733333333     0.314466666667     0.135833333333     0.336      
C        C      0.980333333333     0.286166666667     0.152533333333     0.336      
C        C      0.988500000000     0.029566666667     0.150133333333     0.336      
C        C      0.934066666667     0.291300000000     0.103466666667     0.336      
C        C      0.977933333333     0.064100000000     0.135066666667     0.336      
C        C      0.840066666667     0.297066666667     0.642433333333     0.336      
C        C      0.877733333333     0.332933333333     0.664800000000     0.336      
C        C      0.870633333333     0.035166666667     0.355266666667     0.336      
C        C      0.843533333333     0.255333333333     0.616400000000     0.336      
C        C      0.925633333333     0.000133333333     0.663466666667     0.336      
C        C      0.998100000000     0.209066666667     0.352733333333     0.336      
C        C      0.957400000000     0.171100000000     0.336300000000     0.336      
C        C      0.959700000000     0.129633333333     0.650433333333     0.336      
C        C      0.996766666667     0.256133333333     0.369866666667     0.336      
C        C      0.910966666667     0.173900000000     0.342066666667     0.336      
C        C      0.697933333333     0.018866666667     0.530833333333     0.336      
C        C      0.686333333333     0.047166666667     0.514133333333     0.336      
C        C      0.678166666667     0.303766666667     0.516533333333     0.336      
C        C      0.732600000000     0.042033333333     0.563200000000     0.336      
C        C      0.688733333333     0.269233333333     0.531600000000     0.336      
C        C      0.826600000000     0.036266666667     0.357566666667     0.336      
C        C      0.788933333333     0.000400000000     0.335200000000     0.336      
C        C      0.796033333333     0.298166666667     0.644733333333     0.336      
C        C      0.823133333333     0.078000000000     0.383600000000     0.336      
C        C      0.741033333333     0.333200000000     0.336533333333     0.336      
C        C      0.668566666667     0.124266666667     0.647266666667     0.336      
C        C      0.709266666667     0.162233333333     0.663700000000     0.336      
C        C      0.706966666667     0.203700000000     0.349566666667     0.336      
C        C      0.669900000000     0.077200000000     0.630133333333     0.336      
C        C      0.755700000000     0.159433333333     0.657933333333     0.336      
C        C      0.968733333333     0.314466666667     0.469166666667     0.336      
C        C      0.980333333333     0.286166666667     0.485866666667     0.336      
C        C      0.988500000000     0.029566666667     0.483466666667     0.336      
C        C      0.934066666667     0.291300000000     0.436800000000     0.336      
C        C      0.977933333333     0.064100000000     0.468400000000     0.336      
C        C      0.840066666667     0.297066666667     0.975766666667     0.336      
C        C      0.877733333333     0.332933333333     0.998133333333     0.336      
C        C      0.870633333333     0.035166666667     0.688600000000     0.336      
C        C      0.843533333333     0.255333333333     0.949733333333     0.336      
C        C      0.925633333333     0.000133333333     0.996800000000     0.336      
C        C      0.998100000000     0.209066666667     0.686066666667     0.336      
C        C      0.957400000000     0.171100000000     0.669633333333     0.336      
C        C      0.959700000000     0.129633333333     0.983766666667     0.336      
C        C      0.996766666667     0.256133333333     0.703200000000     0.336      
C        C      0.910966666667     0.173900000000     0.675400000000     0.336      
C        C      0.697933333333     0.018866666667     0.864166666667     0.336      
C        C      0.686333333333     0.047166666667     0.847466666667     0.336      
C        C      0.678166666667     0.303766666667     0.849866666667     0.336      
C        C      0.732600000000     0.042033333333     0.896533333333     0.336      
C        C      0.688733333333     0.269233333333     0.864933333333     0.336      
C        C      0.826600000000     0.036266666667     0.690900000000     0.336      
C        C      0.788933333333     0.000400000000     0.668533333333     0.336      
C        C      0.796033333333     0.298166666667     0.978066666667     0.336      
C        C      0.823133333333     0.078000000000     0.716933333333     0.336      
C        C      0.741033333333     0.333200000000     0.669866666667     0.336      
C        C      0.668566666667     0.124266666667     0.980600000000     0.336      
C        C      0.709266666667     0.162233333333     0.997033333333     0.336      
C        C      0.706966666667     0.203700000000     0.682900000000     0.336      
C        C      0.669900000000     0.077200000000     0.963466666667     0.336      
C        C      0.755700000000     0.159433333333     0.991266666667     0.336      
C        C      0.968733333333     0.314466666667     0.802500000000     0.336      
C        C      0.980333333333     0.286166666667     0.819200000000     0.336      
C        C      0.988500000000     0.029566666667     0.816800000000     0.336      
C        C      0.934066666667     0.291300000000     0.770133333333     0.336      
C        C      0.977933333333     0.064100000000     0.801733333333     0.336      
C        C      0.840066666667     0.630400000000     0.309100000000     0.336      
C        C      0.877733333333     0.666266666667     0.331466666667     0.336      
C        C      0.870633333333     0.368500000000     0.021933333333     0.336      
C        C      0.843533333333     0.588666666667     0.283066666667     0.336      
C        C      0.925633333333     0.333466666667     0.330133333333     0.336      
C        C      0.998100000000     0.542400000000     0.019400000000     0.336      
C        C      0.957400000000     0.504433333333     0.002966666667     0.336      
C        C      0.959700000000     0.462966666667     0.317100000000     0.336      
C        C      0.996766666667     0.589466666667     0.036533333333     0.336      
C        C      0.910966666667     0.507233333333     0.008733333333     0.336      
C        C      0.697933333333     0.352200000000     0.197500000000     0.336      
C        C      0.686333333333     0.380500000000     0.180800000000     0.336      
C        C      0.678166666667     0.637100000000     0.183200000000     0.336      
C        C      0.732600000000     0.375366666667     0.229866666667     0.336      
C        C      0.688733333333     0.602566666667     0.198266666667     0.336      
C        C      0.826600000000     0.369600000000     0.024233333333     0.336      
C        C      0.788933333333     0.333733333333     0.001866666667     0.336      
C        C      0.796033333333     0.631500000000     0.311400000000     0.336      
C        C      0.823133333333     0.411333333333     0.050266666667     0.336      
C        C      0.741033333333     0.666533333333     0.003200000000     0.336      
C        C      0.668566666667     0.457600000000     0.313933333333     0.336      
C        C      0.709266666667     0.495566666667     0.330366666667     0.336      
C        C      0.706966666667     0.537033333333     0.016233333333     0.336      
C        C      0.669900000000     0.410533333333     0.296800000000     0.336      
C        C      0.755700000000     0.492766666667     0.324600000000     0.336      
C        C      0.968733333333     0.647800000000     0.135833333333     0.336      
C        C      0.980333333333     0.619500000000     0.152533333333     0.336      
C        C      0.988500000000     0.362900000000     0.150133333333     0.336      
C        C      0.934066666667     0.624633333333     0.103466666667     0.336      
C        C      0.977933333333     0.397433333333     0.135066666667     0.336      
C        C      0.840066666667     0.630400000000     0.642433333333     0.336      
C        C      0.877733333333     0.666266666667     0.664800000000     0.336      
C        C      0.870633333333     0.368500000000     0.355266666667     0.336      
C        C      0.843533333333     0.588666666667     0.616400000000     0.336      
C        C      0.925633333333     0.333466666667     0.663466666667     0.336      
C        C      0.998100000000     0.542400000000     0.352733333333     0.336      
C        C      0.957400000000     0.504433333333     0.336300000000     0.336      
C        C      0.959700000000     0.462966666667     0.650433333333     0.336      
C        C      0.996766666667     0.589466666667     0.369866666667     0.336      
C        C      0.910966666667     0.507233333333     0.342066666667     0.336      
C        C      0.697933333333     0.352200000000     0.530833333333     0.336      
C        C      0.686333333333     0.380500000000     0.514133333333     0.336      
C        C      0.678166666667     0.637100000000     0.516533333333     0.336      
C        C      0.732600000000     0.375366666667     0.563200000000     0.336      
C        C      0.688733333333     0.602566666667     0.531600000000     0.336      
C        C      0.826600000000     0.369600000000     0.357566666667     0.336      
C        C      0.788933333333     0.333733333333     0.335200000000     0.336      
C        C      0.796033333333     0.631500000000     0.644733333333     0.336      
C        C      0.823133333333     0.411333333333     0.383600000000     0.336      
C        C      0.741033333333     0.666533333333     0.336533333333     0.336      
C        C      0.668566666667     0.457600000000     0.647266666667     0.336      
C        C      0.709266666667     0.495566666667     0.663700000000     0.336      
C        C      0.706966666667     0.537033333333     0.349566666667     0.336      
C        C      0.669900000000     0.410533333333     0.630133333333     0.336      
C        C      0.755700000000     0.492766666667     0.657933333333     0.336      
C        C      0.968733333333     0.647800000000     0.469166666667     0.336      
C        C      0.980333333333     0.619500000000     0.485866666667     0.336      
C        C      0.988500000000     0.362900000000     0.483466666667     0.336      
C        C      0.934066666667     0.624633333333     0.436800000000     0.336      
C        C      0.977933333333     0.397433333333     0.468400000000     0.336      
C        C      0.840066666667     0.630400000000     0.975766666667     0.336      
C        C      0.877733333333     0.666266666667     0.998133333333     0.336      
C        C      0.870633333333     0.368500000000     0.688600000000     0.336      
C        C      0.843533333333     0.588666666667     0.949733333333     0.336      
C        C      0.925633333333     0.333466666667     0.996800000000     0.336      
C        C      0.998100000000     0.542400000000     0.686066666667     0.336      
C        C      0.957400000000     0.504433333333     0.669633333333     0.336      
C        C      0.959700000000     0.462966666667     0.983766666667     0.336      
C        C      0.996766666667     0.589466666667     0.703200000000     0.336      
C        C      0.910966666667     0.507233333333     0.675400000000     0.336      
C        C      0.697933333333     0.352200000000     0.864166666667     0.336      
C        C      0.686333333333     0.380500000000     0.847466666667     0.336      
C        C      0.678166666667     0.637100000000     0.849866666667     0.336      
C        C      0.732600000000     0.375366666667     0.896533333333     0.336      
C        C      0.688733333333     0.602566666667     0.864933333333     0.336      
C        C      0.826600000000     0.369600000000     0.690900000000     0.336      
C        C      0.788933333333     0.333733333333     0.668533333333     0.336      
C        C      0.796033333333     0.631500000000     0.978066666667     0.336      
C        C      0.823133333333     0.411333333333     0.716933333333     0.336      
C        C      0.741033333333     0.666533333333     0.669866666667     0.336      
C        C      0.668566666667     0.457600000000     0.980600000000     0.336      
C        C      0.709266666667     0.495566666667     0.997033333333     0.336      
C        C      0.706966666667     0.537033333333     0.682900000000     0.336      
C        C      0.669900000000     0.410533333333     0.963466666667     0.336      
C        C      0.755700000000     0.492766666667     0.991266666667     0.336      
C        C      0.968733333333     0.647800000000     0.802500000000     0.336      
C        C      0.980333333333     0.619500000000     0.819200000000     0.336      
C        C      0.988500000000     0.362900000000     0.816800000000     0.336      
C        C      0.934066666667     0.624633333333     0.770133333333     0.336      
C        C      0.977933333333     0.397433333333     0.801733333333     0.336      
C        C      0.840066666667     0.963733333333     0.309100000000     0.336      
C        C      0.877733333333     0.999600000000     0.331466666667     0.336      
C        C      0.870633333333     0.701833333333     0.021933333333     0.336      
C        C      0.843533333333     0.922000000000     0.283066666667     0.336      
C        C      0.925633333333     0.666800000000     0.330133333333     0.336      
C        C      0.998100000000     0.875733333333     0.019400000000     0.336      
C        C      0.957400000000     0.837766666667     0.002966666667     0.336      
C        C      0.959700000000     0.796300000000     0.317100000000     0.336      
C        C      0.996766666667     0.922800000000     0.036533333333     0.336      
C        C      0.910966666667     0.840566666667     0.008733333333     0.336      
C        C      0.697933333333     0.685533333333     0.197500000000     0.336      
C        C      0.686333333333     0.713833333333     0.180800000000     0.336      
C        C      0.678166666667     0.970433333333     0.183200000000     0.336      
C        C      0.732600000000     0.708700000000     0.229866666667     0.336      
C        C      0.688733333333     0.935900000000     0.198266666667     0.336      
C        C      0.826600000000     0.702933333333     0.024233333333     0.336      
C        C      0.788933333333     0.667066666667     0.001866666667     0.336      
C        C      0.796033333333     0.964833333333     0.311400000000     0.336      
C        C      0.823133333333     0.744666666667     0.050266666667     0.336      
C        C      0.741033333333     0.999866666667     0.003200000000     0.336      
C        C      0.668566666667     0.790933333333     0.313933333333     0.336      
C        C      0.709266666667     0.828900000000     0.330366666667     0.336      
C        C      0.706966666667     0.870366666667     0.016233333333     0.336      
C        C      0.669900000000     0.743866666667     0.296800000000     0.336      
C        C      0.755700000000     0.826100000000     0.324600000000     0.336      
C        C      0.968733333333     0.981133333333     0.135833333333     0.336      
C        C      0.980333333333     0.952833333333     0.152533333333     0.336      
C        C      0.988500000000     0.696233333333     0.150133333333     0.336      
C        C      0.934066666667     0.957966666667     0.103466666667     0.336      
C        C      0.977933333333     0.730766666667     0.135066666667     0.336      
C        C      0.840066666667     0.963733333333     0.642433333333     0.336      
C        C      0.877733333333     0.999600000000     0.664800000000     0.336      
C        C      0.870633333333     0.701833333333     0.355266666667     0.336      
C        C      0.843533333333     0.922000000000     0.616400000000     0.336      
C        C      0.925633333333     0.666800000000     0.663466666667     0.336      
C        C      0.998100000000     0.875733333333     0.352733333333     0.336      
C        C      0.957400000000     0.837766666667     0.336300000000     0.336      
C        C      0.959700000000     0.796300000000     0.650433333333     0.336      
C        C      0.996766666667     0.922800000000     0.369866666667     0.336      
C        C      0.910966666667     0.840566666667     0.342066666667     0.336      
C        C      0.697933333333     0.685533333333     0.530833333333     0.336      
C        C      0.686333333333     0.713833333333     0.514133333333     0.336      
C        C      0.678166666667     0.970433333333     0.516533333333     0.336      
C        C      0.732600000000     0.708700000000     0.563200000000     0.336      
C        C      0.688733333333     0.935900000000     0.531600000000     0.336      
C        C      0.826600000000     0.702933333333     0.357566666667     0.336      
C        C      0.788933333333     0.667066666667     0.335200000000     0.336      
C        C      0.796033333333     0.964833333333     0.644733333333     0.336      
C        C      0.823133333333     0.744666666667     0.383600000000     0.336      
C        C      0.741033333333     0.999866666667     0.336533333333     0.336      
C        C      0.668566666667     0.790933333333     0.647266666667     0.336      
C        C      0.709266666667     0.828900000000     0.663700000000     0.336      
C        C      0.706966666667     0.870366666667     0.349566666667     0.336      
C        C      0.669900000000     0.743866666667     0.630133333333     0.336      
C        C      0.755700000000     0.826100000000     0.657933333333     0.336      
C        C      0.968733333333     0.981133333333     0.469166666667     0.336      
C        C      0.980333333333     0.952833333333     0.485866666667     0.336      
C        C      0.988500000000     0.696233333333     0.483466666667     0.336      
C        C      0.934066666667     0.957966666667     0.436800000000     0.336      
C        C      0.977933333333     0.730766666667     0.468400000000     0.336      
C        C      0.840066666667     0.963733333333     0.975766666667     0.336      
C        C      0.877733333333     0.999600000000     0.998133333333     0.336      
C        C      0.870633333333     0.701833333333     0.688600000000     0.336      
C        C      0.843533333333     0.922000000000     0.949733333333     0.336      
C        C      0.925633333333     0.666800000000     0.996800000000     0.336      
C        C      0.998100000000     0.875733333333     0.686066666667     0.336      
C        C      0.957400000000     0.837766666667     0.669633333333     0.336      
C        C      0.959700000000     0.796300000000     0.983766666667     0.336      
C        C      0.996766666667     0.922800000000     0.703200000000     0.336      
C        C      0.910966666667     0.840566666667     0.675400000000     0.336      
C        C      0.697933333333     0.685533333333     0.864166666667     0.336      
C        C      0.686333333333     0.713833333333     0.847466666667     0.336      
C        C      0.678166666667     0.970433333333     0.849866666667     0.336      
C        C      0.732600000000     0.708700000000     0.896533333333     0.336      
C        C      0.688733333333     0.935900000000     0.864933333333     0.336      
C        C      0.826600000000     0.702933333333     0.690900000000     0.336      
C        C      0.788933333333     0.667066666667     0.668533333333     0.336      
C        C      0.796033333333     0.964833333333     0.978066666667     0.336      
C        C      0.823133333333     0.744666666667     0.716933333333     0.336      
C        C      0.741033333333     0.999866666667     0.669866666667     0.336      
C        C      0.668566666667     0.790933333333     0.980600000000     0.336      
C        C      0.709266666667     0.828900000000     0.997033333333     0.336      
C        C      0.706966666667     0.870366666667     0.682900000000     0.336      
C        C      0.669900000000     0.743866666667     0.963466666667     0.336      
C        C      0.755700000000     0.826100000000     0.991266666667     0.336      
C        C      0.968733333333     0.981133333333     0.802500000000     0.336      
C        C      0.980333333333     0.952833333333     0.819200000000     0.336      
C        C      0.988500000000     0.696233333333     0.816800000000     0.336      
C        C      0.934066666667     0.957966666667     0.770133333333     0.336      
C        C      0.977933333333     0.730766666667     0.801733333333     0.336      
Er       Er     0.158796666667     0.139980000000     0.270640000000    -0.003      
Er       Er     0.006210000000     0.016760000000     0.062193333333    -0.003      
Er       Er     0.174536666667     0.193353333333     0.062693333333    -0.003      
Er       Er     0.327123333333     0.316573333333     0.271140000000    -0.003      
Er       Er     0.158796666667     0.139980000000     0.603973333333    -0.003      
Er       Er     0.006210000000     0.016760000000     0.395526666667    -0.003      
Er       Er     0.174536666667     0.193353333333     0.396026666667    -0.003      
Er       Er     0.327123333333     0.316573333333     0.604473333333    -0.003      
Er       Er     0.158796666667     0.139980000000     0.937306666667    -0.003      
Er       Er     0.006210000000     0.016760000000     0.728860000000    -0.003      
Er       Er     0.174536666667     0.193353333333     0.729360000000    -0.003      
Er       Er     0.327123333333     0.316573333333     0.937806666667    -0.003      
Er       Er     0.158796666667     0.473313333333     0.270640000000    -0.003      
Er       Er     0.006210000000     0.350093333333     0.062193333333    -0.003      
Er       Er     0.174536666667     0.526686666667     0.062693333333    -0.003      
Er       Er     0.327123333333     0.649906666667     0.271140000000    -0.003      
Er       Er     0.158796666667     0.473313333333     0.603973333333    -0.003      
Er       Er     0.006210000000     0.350093333333     0.395526666667    -0.003      
Er       Er     0.174536666667     0.526686666667     0.396026666667    -0.003      
Er       Er     0.327123333333     0.649906666667     0.604473333333    -0.003      
Er       Er     0.158796666667     0.473313333333     0.937306666667    -0.003      
Er       Er     0.006210000000     0.350093333333     0.728860000000    -0.003      
Er       Er     0.174536666667     0.526686666667     0.729360000000    -0.003      
Er       Er     0.327123333333     0.649906666667     0.937806666667    -0.003      
Er       Er     0.158796666667     0.806646666667     0.270640000000    -0.003      
Er       Er     0.006210000000     0.683426666667     0.062193333333    -0.003      
Er       Er     0.174536666667     0.860020000000     0.062693333333    -0.003      
Er       Er     0.327123333333     0.983240000000     0.271140000000    -0.003      
Er       Er     0.158796666667     0.806646666667     0.603973333333    -0.003      
Er       Er     0.006210000000     0.683426666667     0.395526666667    -0.003      
Er       Er     0.174536666667     0.860020000000     0.396026666667    -0.003      
Er       Er     0.327123333333     0.983240000000     0.604473333333    -0.003      
Er       Er     0.158796666667     0.806646666667     0.937306666667    -0.003      
Er       Er     0.006210000000     0.683426666667     0.728860000000    -0.003      
Er       Er     0.174536666667     0.860020000000     0.729360000000    -0.003      
Er       Er     0.327123333333     0.983240000000     0.937806666667    -0.003      
Er       Er     0.492130000000     0.139980000000     0.270640000000    -0.003      
Er       Er     0.339543333333     0.016760000000     0.062193333333    -0.003      
Er       Er     0.507870000000     0.193353333333     0.062693333333    -0.003      
Er       Er     0.660456666667     0.316573333333     0.271140000000    -0.003      
Er       Er     0.492130000000     0.139980000000     0.603973333333    -0.003      
Er       Er     0.339543333333     0.016760000000     0.395526666667    -0.003      
Er       Er     0.507870000000     0.193353333333     0.396026666667    -0.003      
Er       Er     0.660456666667     0.316573333333     0.604473333333    -0.003      
Er       Er     0.492130000000     0.139980000000     0.937306666667    -0.003      
Er       Er     0.339543333333     0.016760000000     0.728860000000    -0.003      
Er       Er     0.507870000000     0.193353333333     0.729360000000    -0.003      
Er       Er     0.660456666667     0.316573333333     0.937806666667    -0.003      
Er       Er     0.492130000000     0.473313333333     0.270640000000    -0.003      
Er       Er     0.339543333333     0.350093333333     0.062193333333    -0.003      
Er       Er     0.507870000000     0.526686666667     0.062693333333    -0.003      
Er       Er     0.660456666667     0.649906666667     0.271140000000    -0.003      
Er       Er     0.492130000000     0.473313333333     0.603973333333    -0.003      
Er       Er     0.339543333333     0.350093333333     0.395526666667    -0.003      
Er       Er     0.507870000000     0.526686666667     0.396026666667    -0.003      
Er       Er     0.660456666667     0.649906666667     0.604473333333    -0.003      
Er       Er     0.492130000000     0.473313333333     0.937306666667    -0.003      
Er       Er     0.339543333333     0.350093333333     0.728860000000    -0.003      
Er       Er     0.507870000000     0.526686666667     0.729360000000    -0.003      
Er       Er     0.660456666667     0.649906666667     0.937806666667    -0.003      
Er       Er     0.492130000000     0.806646666667     0.270640000000    -0.003      
Er       Er     0.339543333333     0.683426666667     0.062193333333    -0.003      
Er       Er     0.507870000000     0.860020000000     0.062693333333    -0.003      
Er       Er     0.660456666667     0.983240000000     0.271140000000    -0.003      
Er       Er     0.492130000000     0.806646666667     0.603973333333    -0.003      
Er       Er     0.339543333333     0.683426666667     0.395526666667    -0.003      
Er       Er     0.507870000000     0.860020000000     0.396026666667    -0.003      
Er       Er     0.660456666667     0.983240000000     0.604473333333    -0.003      
Er       Er     0.492130000000     0.806646666667     0.937306666667    -0.003      
Er       Er     0.339543333333     0.683426666667     0.728860000000    -0.003      
Er       Er     0.507870000000     0.860020000000     0.729360000000    -0.003      
Er       Er     0.660456666667     0.983240000000     0.937806666667    -0.003      
Er       Er     0.825463333333     0.139980000000     0.270640000000    -0.003      
Er       Er     0.672876666667     0.016760000000     0.062193333333    -0.003      
Er       Er     0.841203333333     0.193353333333     0.062693333333    -0.003      
Er       Er     0.993790000000     0.316573333333     0.271140000000    -0.003      
Er       Er     0.825463333333     0.139980000000     0.603973333333    -0.003      
Er       Er     0.672876666667     0.016760000000     0.395526666667    -0.003      
Er       Er     0.841203333333     0.193353333333     0.396026666667    -0.003      
Er       Er     0.993790000000     0.316573333333     0.604473333333    -0.003      
Er       Er     0.825463333333     0.139980000000     0.937306666667    -0.003      
Er       Er     0.672876666667     0.016760000000     0.728860000000    -0.003      
Er       Er     0.841203333333     0.193353333333     0.729360000000    -0.003      
Er       Er     0.993790000000     0.316573333333     0.937806666667    -0.003      
Er       Er     0.825463333333     0.473313333333     0.270640000000    -0.003      
Er       Er     0.672876666667     0.350093333333     0.062193333333    -0.003      
Er       Er     0.841203333333     0.526686666667     0.062693333333    -0.003      
Er       Er     0.993790000000     0.649906666667     0.271140000000    -0.003      
Er       Er     0.825463333333     0.473313333333     0.603973333333    -0.003      
Er       Er     0.672876666667     0.350093333333     0.395526666667    -0.003      
Er       Er     0.841203333333     0.526686666667     0.396026666667    -0.003      
Er       Er     0.993790000000     0.649906666667     0.604473333333    -0.003      
Er       Er     0.825463333333     0.473313333333     0.937306666667    -0.003      
Er       Er     0.672876666667     0.350093333333     0.728860000000    -0.003      
Er       Er     0.841203333333     0.526686666667     0.729360000000    -0.003      
Er       Er     0.993790000000     0.649906666667     0.937806666667    -0.003      
Er       Er     0.825463333333     0.806646666667     0.270640000000    -0.003      
Er       Er     0.672876666667     0.683426666667     0.062193333333    -0.003      
Er       Er     0.841203333333     0.860020000000     0.062693333333    -0.003      
Er       Er     0.993790000000     0.983240000000     0.271140000000    -0.003      
Er       Er     0.825463333333     0.806646666667     0.603973333333    -0.003      
Er       Er     0.672876666667     0.683426666667     0.395526666667    -0.003      
Er       Er     0.841203333333     0.860020000000     0.396026666667    -0.003      
Er       Er     0.993790000000     0.983240000000     0.604473333333    -0.003      
Er       Er     0.825463333333     0.806646666667     0.937306666667    -0.003      
Er       Er     0.672876666667     0.683426666667     0.728860000000    -0.003      
Er       Er     0.841203333333     0.860020000000     0.729360000000    -0.003      
Er       Er     0.993790000000     0.983240000000     0.937806666667    -0.003      
H        H      0.229033333333     0.058966666667     0.036766666667     0.305      
H        H      0.266033333333     0.104866666667     0.306133333333     0.305      
H        H      0.033200000000     0.079200000000     0.190400000000     0.305      
H        H      0.104300000000     0.274366666667     0.296566666667     0.305      
H        H      0.067300000000     0.228466666667     0.027200000000     0.305      
H        H      0.300133333333     0.254133333333     0.142933333333     0.305      
H        H      0.229033333333     0.058966666667     0.370100000000     0.305      
H        H      0.266033333333     0.104866666667     0.639466666667     0.305      
H        H      0.033200000000     0.079200000000     0.523733333333     0.305      
H        H      0.104300000000     0.274366666667     0.629900000000     0.305      
H        H      0.067300000000     0.228466666667     0.360533333333     0.305      
H        H      0.300133333333     0.254133333333     0.476266666667     0.305      
H        H      0.229033333333     0.058966666667     0.703433333333     0.305      
H        H      0.266033333333     0.104866666667     0.972800000000     0.305      
H        H      0.033200000000     0.079200000000     0.857066666667     0.305      
H        H      0.104300000000     0.274366666667     0.963233333333     0.305      
H        H      0.067300000000     0.228466666667     0.693866666667     0.305      
H        H      0.300133333333     0.254133333333     0.809600000000     0.305      
H        H      0.229033333333     0.392300000000     0.036766666667     0.305      
H        H      0.266033333333     0.438200000000     0.306133333333     0.305      
H        H      0.033200000000     0.412533333333     0.190400000000     0.305      
H        H      0.104300000000     0.607700000000     0.296566666667     0.305      
H        H      0.067300000000     0.561800000000     0.027200000000     0.305      
H        H      0.300133333333     0.587466666667     0.142933333333     0.305      
H        H      0.229033333333     0.392300000000     0.370100000000     0.305      
H        H      0.266033333333     0.438200000000     0.639466666667     0.305      
H        H      0.033200000000     0.412533333333     0.523733333333     0.305      
H        H      0.104300000000     0.607700000000     0.629900000000     0.305      
H        H      0.067300000000     0.561800000000     0.360533333333     0.305      
H        H      0.300133333333     0.587466666667     0.476266666667     0.305      
H        H      0.229033333333     0.392300000000     0.703433333333     0.305      
H        H      0.266033333333     0.438200000000     0.972800000000     0.305      
H        H      0.033200000000     0.412533333333     0.857066666667     0.305      
H        H      0.104300000000     0.607700000000     0.963233333333     0.305      
H        H      0.067300000000     0.561800000000     0.693866666667     0.305      
H        H      0.300133333333     0.587466666667     0.809600000000     0.305      
H        H      0.229033333333     0.725633333333     0.036766666667     0.305      
H        H      0.266033333333     0.771533333333     0.306133333333     0.305      
H        H      0.033200000000     0.745866666667     0.190400000000     0.305      
H        H      0.104300000000     0.941033333333     0.296566666667     0.305      
H        H      0.067300000000     0.895133333333     0.027200000000     0.305      
H        H      0.300133333333     0.920800000000     0.142933333333     0.305      
H        H      0.229033333333     0.725633333333     0.370100000000     0.305      
H        H      0.266033333333     0.771533333333     0.639466666667     0.305      
H        H      0.033200000000     0.745866666667     0.523733333333     0.305      
H        H      0.104300000000     0.941033333333     0.629900000000     0.305      
H        H      0.067300000000     0.895133333333     0.360533333333     0.305      
H        H      0.300133333333     0.920800000000     0.476266666667     0.305      
H        H      0.229033333333     0.725633333333     0.703433333333     0.305      
H        H      0.266033333333     0.771533333333     0.972800000000     0.305      
H        H      0.033200000000     0.745866666667     0.857066666667     0.305      
H        H      0.104300000000     0.941033333333     0.963233333333     0.305      
H        H      0.067300000000     0.895133333333     0.693866666667     0.305      
H        H      0.300133333333     0.920800000000     0.809600000000     0.305      
H        H      0.562366666667     0.058966666667     0.036766666667     0.305      
H        H      0.599366666667     0.104866666667     0.306133333333     0.305      
H        H      0.366533333333     0.079200000000     0.190400000000     0.305      
H        H      0.437633333333     0.274366666667     0.296566666667     0.305      
H        H      0.400633333333     0.228466666667     0.027200000000     0.305      
H        H      0.633466666667     0.254133333333     0.142933333333     0.305      
H        H      0.562366666667     0.058966666667     0.370100000000     0.305      
H        H      0.599366666667     0.104866666667     0.639466666667     0.305      
H        H      0.366533333333     0.079200000000     0.523733333333     0.305      
H        H      0.437633333333     0.274366666667     0.629900000000     0.305      
H        H      0.400633333333     0.228466666667     0.360533333333     0.305      
H        H      0.633466666667     0.254133333333     0.476266666667     0.305      
H        H      0.562366666667     0.058966666667     0.703433333333     0.305      
H        H      0.599366666667     0.104866666667     0.972800000000     0.305      
H        H      0.366533333333     0.079200000000     0.857066666667     0.305      
H        H      0.437633333333     0.274366666667     0.963233333333     0.305      
H        H      0.400633333333     0.228466666667     0.693866666667     0.305      
H        H      0.633466666667     0.254133333333     0.809600000000     0.305      
H        H      0.562366666667     0.392300000000     0.036766666667     0.305      
H        H      0.599366666667     0.438200000000     0.306133333333     0.305      
H        H      0.366533333333     0.412533333333     0.190400000000     0.305      
H        H      0.437633333333     0.607700000000     0.296566666667     0.305      
H        H      0.400633333333     0.561800000000     0.027200000000     0.305      
H        H      0.633466666667     0.587466666667     0.142933333333     0.305      
H        H      0.562366666667     0.392300000000     0.370100000000     0.305      
H        H      0.599366666667     0.438200000000     0.639466666667     0.305      
H        H      0.366533333333     0.412533333333     0.523733333333     0.305      
H        H      0.437633333333     0.607700000000     0.629900000000     0.305      
H        H      0.400633333333     0.561800000000     0.360533333333     0.305      
H        H      0.633466666667     0.587466666667     0.476266666667     0.305      
H        H      0.562366666667     0.392300000000     0.703433333333     0.305      
H        H      0.599366666667     0.438200000000     0.972800000000     0.305      
H        H      0.366533333333     0.412533333333     0.857066666667     0.305      
H        H      0.437633333333     0.607700000000     0.963233333333     0.305      
H        H      0.400633333333     0.561800000000     0.693866666667     0.305      
H        H      0.633466666667     0.587466666667     0.809600000000     0.305      
H        H      0.562366666667     0.725633333333     0.036766666667     0.305      
H        H      0.599366666667     0.771533333333     0.306133333333     0.305      
H        H      0.366533333333     0.745866666667     0.190400000000     0.305      
H        H      0.437633333333     0.941033333333     0.296566666667     0.305      
H        H      0.400633333333     0.895133333333     0.027200000000     0.305      
H        H      0.633466666667     0.920800000000     0.142933333333     0.305      
H        H      0.562366666667     0.725633333333     0.370100000000     0.305      
H        H      0.599366666667     0.771533333333     0.639466666667     0.305      
H        H      0.366533333333     0.745866666667     0.523733333333     0.305      
H        H      0.437633333333     0.941033333333     0.629900000000     0.305      
H        H      0.400633333333     0.895133333333     0.360533333333     0.305      
H        H      0.633466666667     0.920800000000     0.476266666667     0.305      
H        H      0.562366666667     0.725633333333     0.703433333333     0.305      
H        H      0.599366666667     0.771533333333     0.972800000000     0.305      
H        H      0.366533333333     0.745866666667     0.857066666667     0.305      
H        H      0.437633333333     0.941033333333     0.963233333333     0.305      
H        H      0.400633333333     0.895133333333     0.693866666667     0.305      
H        H      0.633466666667     0.920800000000     0.809600000000     0.305      
H        H      0.895700000000     0.058966666667     0.036766666667     0.305      
H        H      0.932700000000     0.104866666667     0.306133333333     0.305      
H        H      0.699866666667     0.079200000000     0.190400000000     0.305      
H        H      0.770966666667     0.274366666667     0.296566666667     0.305      
H        H      0.733966666667     0.228466666667     0.027200000000     0.305      
H        H      0.966800000000     0.254133333333     0.142933333333     0.305      
H        H      0.895700000000     0.058966666667     0.370100000000     0.305      
H        H      0.932700000000     0.104866666667     0.639466666667     0.305      
H        H      0.699866666667     0.079200000000     0.523733333333     0.305      
H        H      0.770966666667     0.274366666667     0.629900000000     0.305      
H        H      0.733966666667     0.228466666667     0.360533333333     0.305      
H        H      0.966800000000     0.254133333333     0.476266666667     0.305      
H        H      0.895700000000     0.058966666667     0.703433333333     0.305      
H        H      0.932700000000     0.104866666667     0.972800000000     0.305      
H        H      0.699866666667     0.079200000000     0.857066666667     0.305      
H        H      0.770966666667     0.274366666667     0.963233333333     0.305      
H        H      0.733966666667     0.228466666667     0.693866666667     0.305      
H        H      0.966800000000     0.254133333333     0.809600000000     0.305      
H        H      0.895700000000     0.392300000000     0.036766666667     0.305      
H        H      0.932700000000     0.438200000000     0.306133333333     0.305      
H        H      0.699866666667     0.412533333333     0.190400000000     0.305      
H        H      0.770966666667     0.607700000000     0.296566666667     0.305      
H        H      0.733966666667     0.561800000000     0.027200000000     0.305      
H        H      0.966800000000     0.587466666667     0.142933333333     0.305      
H        H      0.895700000000     0.392300000000     0.370100000000     0.305      
H        H      0.932700000000     0.438200000000     0.639466666667     0.305      
H        H      0.699866666667     0.412533333333     0.523733333333     0.305      
H        H      0.770966666667     0.607700000000     0.629900000000     0.305      
H        H      0.733966666667     0.561800000000     0.360533333333     0.305      
H        H      0.966800000000     0.587466666667     0.476266666667     0.305      
H        H      0.895700000000     0.392300000000     0.703433333333     0.305      
H        H      0.932700000000     0.438200000000     0.972800000000     0.305      
H        H      0.699866666667     0.412533333333     0.857066666667     0.305      
H        H      0.770966666667     0.607700000000     0.963233333333     0.305      
H        H      0.733966666667     0.561800000000     0.693866666667     0.305      
H        H      0.966800000000     0.587466666667     0.809600000000     0.305      
H        H      0.895700000000     0.725633333333     0.036766666667     0.305      
H        H      0.932700000000     0.771533333333     0.306133333333     0.305      
H        H      0.699866666667     0.745866666667     0.190400000000     0.305      
H        H      0.770966666667     0.941033333333     0.296566666667     0.305      
H        H      0.733966666667     0.895133333333     0.027200000000     0.305      
H        H      0.966800000000     0.920800000000     0.142933333333     0.305      
H        H      0.895700000000     0.725633333333     0.370100000000     0.305      
H        H      0.932700000000     0.771533333333     0.639466666667     0.305      
H        H      0.699866666667     0.745866666667     0.523733333333     0.305      
H        H      0.770966666667     0.941033333333     0.629900000000     0.305      
H        H      0.733966666667     0.895133333333     0.360533333333     0.305      
H        H      0.966800000000     0.920800000000     0.476266666667     0.305      
H        H      0.895700000000     0.725633333333     0.703433333333     0.305      
H        H      0.932700000000     0.771533333333     0.972800000000     0.305      
H        H      0.699866666667     0.745866666667     0.857066666667     0.305      
H        H      0.770966666667     0.941033333333     0.963233333333     0.305      
H        H      0.733966666667     0.895133333333     0.693866666667     0.305      
H        H      0.966800000000     0.920800000000     0.809600000000     0.305      
O        O      0.287000000000     0.020533333333     0.024533333333     0.457      
O        O      0.268233333333     0.314833333333     0.302133333333     0.457      
O        O      0.179666666667     0.223033333333     0.294333333333     0.457      
O        O      0.173166666667     0.254433333333     0.252266666667     0.457      
O        O      0.214666666667     0.163366666667     0.316233333333     0.457      
O        O      0.238133333333     0.184833333333     0.039066666667     0.457      
O        O      0.307366666667     0.272266666667     0.019866666667     0.457      
O        O      0.020366666667     0.280300000000     0.065700000000     0.457      
O        O      0.059966666667     0.025433333333     0.254533333333     0.457      
O        O      0.099333333333     0.077533333333     0.230766666667     0.457      
O        O      0.010800000000     0.266300000000     0.226666666667     0.457      
O        O      0.038866666667     0.243366666667     0.179766666667     0.457      
O        O      0.046333333333     0.312800000000     0.308800000000     0.457      
O        O      0.065100000000     0.018500000000     0.031200000000     0.457      
O        O      0.153666666667     0.110300000000     0.039000000000     0.457      
O        O      0.160166666667     0.078900000000     0.081066666667     0.457      
O        O      0.118666666667     0.169966666667     0.017100000000     0.457      
O        O      0.095200000000     0.148500000000     0.294266666667     0.457      
O        O      0.025966666667     0.061066666667     0.313466666667     0.457      
O        O      0.312966666667     0.053033333333     0.267633333333     0.457      
O        O      0.273366666667     0.307900000000     0.078800000000     0.457      
O        O      0.234000000000     0.255800000000     0.102566666667     0.457      
O        O      0.322533333333     0.067033333333     0.106666666667     0.457      
O        O      0.294466666667     0.089966666667     0.153566666667     0.457      
O        O      0.287000000000     0.020533333333     0.357866666667     0.457      
O        O      0.268233333333     0.314833333333     0.635466666667     0.457      
O        O      0.179666666667     0.223033333333     0.627666666667     0.457      
O        O      0.173166666667     0.254433333333     0.585600000000     0.457      
O        O      0.214666666667     0.163366666667     0.649566666667     0.457      
O        O      0.238133333333     0.184833333333     0.372400000000     0.457      
O        O      0.307366666667     0.272266666667     0.353200000000     0.457      
O        O      0.020366666667     0.280300000000     0.399033333333     0.457      
O        O      0.059966666667     0.025433333333     0.587866666667     0.457      
O        O      0.099333333333     0.077533333333     0.564100000000     0.457      
O        O      0.010800000000     0.266300000000     0.560000000000     0.457      
O        O      0.038866666667     0.243366666667     0.513100000000     0.457      
O        O      0.046333333333     0.312800000000     0.642133333333     0.457      
O        O      0.065100000000     0.018500000000     0.364533333333     0.457      
O        O      0.153666666667     0.110300000000     0.372333333333     0.457      
O        O      0.160166666667     0.078900000000     0.414400000000     0.457      
O        O      0.118666666667     0.169966666667     0.350433333333     0.457      
O        O      0.095200000000     0.148500000000     0.627600000000     0.457      
O        O      0.025966666667     0.061066666667     0.646800000000     0.457      
O        O      0.312966666667     0.053033333333     0.600966666667     0.457      
O        O      0.273366666667     0.307900000000     0.412133333333     0.457      
O        O      0.234000000000     0.255800000000     0.435900000000     0.457      
O        O      0.322533333333     0.067033333333     0.440000000000     0.457      
O        O      0.294466666667     0.089966666667     0.486900000000     0.457      
O        O      0.287000000000     0.020533333333     0.691200000000     0.457      
O        O      0.268233333333     0.314833333333     0.968800000000     0.457      
O        O      0.179666666667     0.223033333333     0.961000000000     0.457      
O        O      0.173166666667     0.254433333333     0.918933333333     0.457      
O        O      0.214666666667     0.163366666667     0.982900000000     0.457      
O        O      0.238133333333     0.184833333333     0.705733333333     0.457      
O        O      0.307366666667     0.272266666667     0.686533333333     0.457      
O        O      0.020366666667     0.280300000000     0.732366666667     0.457      
O        O      0.059966666667     0.025433333333     0.921200000000     0.457      
O        O      0.099333333333     0.077533333333     0.897433333333     0.457      
O        O      0.010800000000     0.266300000000     0.893333333333     0.457      
O        O      0.038866666667     0.243366666667     0.846433333333     0.457      
O        O      0.046333333333     0.312800000000     0.975466666667     0.457      
O        O      0.065100000000     0.018500000000     0.697866666667     0.457      
O        O      0.153666666667     0.110300000000     0.705666666667     0.457      
O        O      0.160166666667     0.078900000000     0.747733333333     0.457      
O        O      0.118666666667     0.169966666667     0.683766666667     0.457      
O        O      0.095200000000     0.148500000000     0.960933333333     0.457      
O        O      0.025966666667     0.061066666667     0.980133333333     0.457      
O        O      0.312966666667     0.053033333333     0.934300000000     0.457      
O        O      0.273366666667     0.307900000000     0.745466666667     0.457      
O        O      0.234000000000     0.255800000000     0.769233333333     0.457      
O        O      0.322533333333     0.067033333333     0.773333333333     0.457      
O        O      0.294466666667     0.089966666667     0.820233333333     0.457      
O        O      0.287000000000     0.353866666667     0.024533333333     0.457      
O        O      0.268233333333     0.648166666667     0.302133333333     0.457      
O        O      0.179666666667     0.556366666667     0.294333333333     0.457      
O        O      0.173166666667     0.587766666667     0.252266666667     0.457      
O        O      0.214666666667     0.496700000000     0.316233333333     0.457      
O        O      0.238133333333     0.518166666667     0.039066666667     0.457      
O        O      0.307366666667     0.605600000000     0.019866666667     0.457      
O        O      0.020366666667     0.613633333333     0.065700000000     0.457      
O        O      0.059966666667     0.358766666667     0.254533333333     0.457      
O        O      0.099333333333     0.410866666667     0.230766666667     0.457      
O        O      0.010800000000     0.599633333333     0.226666666667     0.457      
O        O      0.038866666667     0.576700000000     0.179766666667     0.457      
O        O      0.046333333333     0.646133333333     0.308800000000     0.457      
O        O      0.065100000000     0.351833333333     0.031200000000     0.457      
O        O      0.153666666667     0.443633333333     0.039000000000     0.457      
O        O      0.160166666667     0.412233333333     0.081066666667     0.457      
O        O      0.118666666667     0.503300000000     0.017100000000     0.457      
O        O      0.095200000000     0.481833333333     0.294266666667     0.457      
O        O      0.025966666667     0.394400000000     0.313466666667     0.457      
O        O      0.312966666667     0.386366666667     0.267633333333     0.457      
O        O      0.273366666667     0.641233333333     0.078800000000     0.457      
O        O      0.234000000000     0.589133333333     0.102566666667     0.457      
O        O      0.322533333333     0.400366666667     0.106666666667     0.457      
O        O      0.294466666667     0.423300000000     0.153566666667     0.457      
O        O      0.287000000000     0.353866666667     0.357866666667     0.457      
O        O      0.268233333333     0.648166666667     0.635466666667     0.457      
O        O      0.179666666667     0.556366666667     0.627666666667     0.457      
O        O      0.173166666667     0.587766666667     0.585600000000     0.457      
O        O      0.214666666667     0.496700000000     0.649566666667     0.457      
O        O      0.238133333333     0.518166666667     0.372400000000     0.457      
O        O      0.307366666667     0.605600000000     0.353200000000     0.457      
O        O      0.020366666667     0.613633333333     0.399033333333     0.457      
O        O      0.059966666667     0.358766666667     0.587866666667     0.457      
O        O      0.099333333333     0.410866666667     0.564100000000     0.457      
O        O      0.010800000000     0.599633333333     0.560000000000     0.457      
O        O      0.038866666667     0.576700000000     0.513100000000     0.457      
O        O      0.046333333333     0.646133333333     0.642133333333     0.457      
O        O      0.065100000000     0.351833333333     0.364533333333     0.457      
O        O      0.153666666667     0.443633333333     0.372333333333     0.457      
O        O      0.160166666667     0.412233333333     0.414400000000     0.457      
O        O      0.118666666667     0.503300000000     0.350433333333     0.457      
O        O      0.095200000000     0.481833333333     0.627600000000     0.457      
O        O      0.025966666667     0.394400000000     0.646800000000     0.457      
O        O      0.312966666667     0.386366666667     0.600966666667     0.457      
O        O      0.273366666667     0.641233333333     0.412133333333     0.457      
O        O      0.234000000000     0.589133333333     0.435900000000     0.457      
O        O      0.322533333333     0.400366666667     0.440000000000     0.457      
O        O      0.294466666667     0.423300000000     0.486900000000     0.457      
O        O      0.287000000000     0.353866666667     0.691200000000     0.457      
O        O      0.268233333333     0.648166666667     0.968800000000     0.457      
O        O      0.179666666667     0.556366666667     0.961000000000     0.457      
O        O      0.173166666667     0.587766666667     0.918933333333     0.457      
O        O      0.214666666667     0.496700000000     0.982900000000     0.457      
O        O      0.238133333333     0.518166666667     0.705733333333     0.457      
O        O      0.307366666667     0.605600000000     0.686533333333     0.457      
O        O      0.020366666667     0.613633333333     0.732366666667     0.457      
O        O      0.059966666667     0.358766666667     0.921200000000     0.457      
O        O      0.099333333333     0.410866666667     0.897433333333     0.457      
O        O      0.010800000000     0.599633333333     0.893333333333     0.457      
O        O      0.038866666667     0.576700000000     0.846433333333     0.457      
O        O      0.046333333333     0.646133333333     0.975466666667     0.457      
O        O      0.065100000000     0.351833333333     0.697866666667     0.457      
O        O      0.153666666667     0.443633333333     0.705666666667     0.457      
O        O      0.160166666667     0.412233333333     0.747733333333     0.457      
O        O      0.118666666667     0.503300000000     0.683766666667     0.457      
O        O      0.095200000000     0.481833333333     0.960933333333     0.457      
O        O      0.025966666667     0.394400000000     0.980133333333     0.457      
O        O      0.312966666667     0.386366666667     0.934300000000     0.457      
O        O      0.273366666667     0.641233333333     0.745466666667     0.457      
O        O      0.234000000000     0.589133333333     0.769233333333     0.457      
O        O      0.322533333333     0.400366666667     0.773333333333     0.457      
O        O      0.294466666667     0.423300000000     0.820233333333     0.457      
O        O      0.287000000000     0.687200000000     0.024533333333     0.457      
O        O      0.268233333333     0.981500000000     0.302133333333     0.457      
O        O      0.179666666667     0.889700000000     0.294333333333     0.457      
O        O      0.173166666667     0.921100000000     0.252266666667     0.457      
O        O      0.214666666667     0.830033333333     0.316233333333     0.457      
O        O      0.238133333333     0.851500000000     0.039066666667     0.457      
O        O      0.307366666667     0.938933333333     0.019866666667     0.457      
O        O      0.020366666667     0.946966666667     0.065700000000     0.457      
O        O      0.059966666667     0.692100000000     0.254533333333     0.457      
O        O      0.099333333333     0.744200000000     0.230766666667     0.457      
O        O      0.010800000000     0.932966666667     0.226666666667     0.457      
O        O      0.038866666667     0.910033333333     0.179766666667     0.457      
O        O      0.046333333333     0.979466666667     0.308800000000     0.457      
O        O      0.065100000000     0.685166666667     0.031200000000     0.457      
O        O      0.153666666667     0.776966666667     0.039000000000     0.457      
O        O      0.160166666667     0.745566666667     0.081066666667     0.457      
O        O      0.118666666667     0.836633333333     0.017100000000     0.457      
O        O      0.095200000000     0.815166666667     0.294266666667     0.457      
O        O      0.025966666667     0.727733333333     0.313466666667     0.457      
O        O      0.312966666667     0.719700000000     0.267633333333     0.457      
O        O      0.273366666667     0.974566666667     0.078800000000     0.457      
O        O      0.234000000000     0.922466666667     0.102566666667     0.457      
O        O      0.322533333333     0.733700000000     0.106666666667     0.457      
O        O      0.294466666667     0.756633333333     0.153566666667     0.457      
O        O      0.287000000000     0.687200000000     0.357866666667     0.457      
O        O      0.268233333333     0.981500000000     0.635466666667     0.457      
O        O      0.179666666667     0.889700000000     0.627666666667     0.457      
O        O      0.173166666667     0.921100000000     0.585600000000     0.457      
O        O      0.214666666667     0.830033333333     0.649566666667     0.457      
O        O      0.238133333333     0.851500000000     0.372400000000     0.457      
O        O      0.307366666667     0.938933333333     0.353200000000     0.457      
O        O      0.020366666667     0.946966666667     0.399033333333     0.457      
O        O      0.059966666667     0.692100000000     0.587866666667     0.457      
O        O      0.099333333333     0.744200000000     0.564100000000     0.457      
O        O      0.010800000000     0.932966666667     0.560000000000     0.457      
O        O      0.038866666667     0.910033333333     0.513100000000     0.457      
O        O      0.046333333333     0.979466666667     0.642133333333     0.457      
O        O      0.065100000000     0.685166666667     0.364533333333     0.457      
O        O      0.153666666667     0.776966666667     0.372333333333     0.457      
O        O      0.160166666667     0.745566666667     0.414400000000     0.457      
O        O      0.118666666667     0.836633333333     0.350433333333     0.457      
O        O      0.095200000000     0.815166666667     0.627600000000     0.457      
O        O      0.025966666667     0.727733333333     0.646800000000     0.457      
O        O      0.312966666667     0.719700000000     0.600966666667     0.457      
O        O      0.273366666667     0.974566666667     0.412133333333     0.457      
O        O      0.234000000000     0.922466666667     0.435900000000     0.457      
O        O      0.322533333333     0.733700000000     0.440000000000     0.457      
O        O      0.294466666667     0.756633333333     0.486900000000     0.457      
O        O      0.287000000000     0.687200000000     0.691200000000     0.457      
O        O      0.268233333333     0.981500000000     0.968800000000     0.457      
O        O      0.179666666667     0.889700000000     0.961000000000     0.457      
O        O      0.173166666667     0.921100000000     0.918933333333     0.457      
O        O      0.214666666667     0.830033333333     0.982900000000     0.457      
O        O      0.238133333333     0.851500000000     0.705733333333     0.457      
O        O      0.307366666667     0.938933333333     0.686533333333     0.457      
O        O      0.020366666667     0.946966666667     0.732366666667     0.457      
O        O      0.059966666667     0.692100000000     0.921200000000     0.457      
O        O      0.099333333333     0.744200000000     0.897433333333     0.457      
O        O      0.010800000000     0.932966666667     0.893333333333     0.457      
O        O      0.038866666667     0.910033333333     0.846433333333     0.457      
O        O      0.046333333333     0.979466666667     0.975466666667     0.457      
O        O      0.065100000000     0.685166666667     0.697866666667     0.457      
O        O      0.153666666667     0.776966666667     0.705666666667     0.457      
O        O      0.160166666667     0.745566666667     0.747733333333     0.457      
O        O      0.118666666667     0.836633333333     0.683766666667     0.457      
O        O      0.095200000000     0.815166666667     0.960933333333     0.457      
O        O      0.025966666667     0.727733333333     0.980133333333     0.457      
O        O      0.312966666667     0.719700000000     0.934300000000     0.457      
O        O      0.273366666667     0.974566666667     0.745466666667     0.457      
O        O      0.234000000000     0.922466666667     0.769233333333     0.457      
O        O      0.322533333333     0.733700000000     0.773333333333     0.457      
O        O      0.294466666667     0.756633333333     0.820233333333     0.457      
O        O      0.620333333333     0.020533333333     0.024533333333     0.457      
O        O      0.601566666667     0.314833333333     0.302133333333     0.457      
O        O      0.513000000000     0.223033333333     0.294333333333     0.457      
O        O      0.506500000000     0.254433333333     0.252266666667     0.457      
O        O      0.548000000000     0.163366666667     0.316233333333     0.457      
O        O      0.571466666667     0.184833333333     0.039066666667     0.457      
O        O      0.640700000000     0.272266666667     0.019866666667     0.457      
O        O      0.353700000000     0.280300000000     0.065700000000     0.457      
O        O      0.393300000000     0.025433333333     0.254533333333     0.457      
O        O      0.432666666667     0.077533333333     0.230766666667     0.457      
O        O      0.344133333333     0.266300000000     0.226666666667     0.457      
O        O      0.372200000000     0.243366666667     0.179766666667     0.457      
O        O      0.379666666667     0.312800000000     0.308800000000     0.457      
O        O      0.398433333333     0.018500000000     0.031200000000     0.457      
O        O      0.487000000000     0.110300000000     0.039000000000     0.457      
O        O      0.493500000000     0.078900000000     0.081066666667     0.457      
O        O      0.452000000000     0.169966666667     0.017100000000     0.457      
O        O      0.428533333333     0.148500000000     0.294266666667     0.457      
O        O      0.359300000000     0.061066666667     0.313466666667     0.457      
O        O      0.646300000000     0.053033333333     0.267633333333     0.457      
O        O      0.606700000000     0.307900000000     0.078800000000     0.457      
O        O      0.567333333333     0.255800000000     0.102566666667     0.457      
O        O      0.655866666667     0.067033333333     0.106666666667     0.457      
O        O      0.627800000000     0.089966666667     0.153566666667     0.457      
O        O      0.620333333333     0.020533333333     0.357866666667     0.457      
O        O      0.601566666667     0.314833333333     0.635466666667     0.457      
O        O      0.513000000000     0.223033333333     0.627666666667     0.457      
O        O      0.506500000000     0.254433333333     0.585600000000     0.457      
O        O      0.548000000000     0.163366666667     0.649566666667     0.457      
O        O      0.571466666667     0.184833333333     0.372400000000     0.457      
O        O      0.640700000000     0.272266666667     0.353200000000     0.457      
O        O      0.353700000000     0.280300000000     0.399033333333     0.457      
O        O      0.393300000000     0.025433333333     0.587866666667     0.457      
O        O      0.432666666667     0.077533333333     0.564100000000     0.457      
O        O      0.344133333333     0.266300000000     0.560000000000     0.457      
O        O      0.372200000000     0.243366666667     0.513100000000     0.457      
O        O      0.379666666667     0.312800000000     0.642133333333     0.457      
O        O      0.398433333333     0.018500000000     0.364533333333     0.457      
O        O      0.487000000000     0.110300000000     0.372333333333     0.457      
O        O      0.493500000000     0.078900000000     0.414400000000     0.457      
O        O      0.452000000000     0.169966666667     0.350433333333     0.457      
O        O      0.428533333333     0.148500000000     0.627600000000     0.457      
O        O      0.359300000000     0.061066666667     0.646800000000     0.457      
O        O      0.646300000000     0.053033333333     0.600966666667     0.457      
O        O      0.606700000000     0.307900000000     0.412133333333     0.457      
O        O      0.567333333333     0.255800000000     0.435900000000     0.457      
O        O      0.655866666667     0.067033333333     0.440000000000     0.457      
O        O      0.627800000000     0.089966666667     0.486900000000     0.457      
O        O      0.620333333333     0.020533333333     0.691200000000     0.457      
O        O      0.601566666667     0.314833333333     0.968800000000     0.457      
O        O      0.513000000000     0.223033333333     0.961000000000     0.457      
O        O      0.506500000000     0.254433333333     0.918933333333     0.457      
O        O      0.548000000000     0.163366666667     0.982900000000     0.457      
O        O      0.571466666667     0.184833333333     0.705733333333     0.457      
O        O      0.640700000000     0.272266666667     0.686533333333     0.457      
O        O      0.353700000000     0.280300000000     0.732366666667     0.457      
O        O      0.393300000000     0.025433333333     0.921200000000     0.457      
O        O      0.432666666667     0.077533333333     0.897433333333     0.457      
O        O      0.344133333333     0.266300000000     0.893333333333     0.457      
O        O      0.372200000000     0.243366666667     0.846433333333     0.457      
O        O      0.379666666667     0.312800000000     0.975466666667     0.457      
O        O      0.398433333333     0.018500000000     0.697866666667     0.457      
O        O      0.487000000000     0.110300000000     0.705666666667     0.457      
O        O      0.493500000000     0.078900000000     0.747733333333     0.457      
O        O      0.452000000000     0.169966666667     0.683766666667     0.457      
O        O      0.428533333333     0.148500000000     0.960933333333     0.457      
O        O      0.359300000000     0.061066666667     0.980133333333     0.457      
O        O      0.646300000000     0.053033333333     0.934300000000     0.457      
O        O      0.606700000000     0.307900000000     0.745466666667     0.457      
O        O      0.567333333333     0.255800000000     0.769233333333     0.457      
O        O      0.655866666667     0.067033333333     0.773333333333     0.457      
O        O      0.627800000000     0.089966666667     0.820233333333     0.457      
O        O      0.620333333333     0.353866666667     0.024533333333     0.457      
O        O      0.601566666667     0.648166666667     0.302133333333     0.457      
O        O      0.513000000000     0.556366666667     0.294333333333     0.457      
O        O      0.506500000000     0.587766666667     0.252266666667     0.457      
O        O      0.548000000000     0.496700000000     0.316233333333     0.457      
O        O      0.571466666667     0.518166666667     0.039066666667     0.457      
O        O      0.640700000000     0.605600000000     0.019866666667     0.457      
O        O      0.353700000000     0.613633333333     0.065700000000     0.457      
O        O      0.393300000000     0.358766666667     0.254533333333     0.457      
O        O      0.432666666667     0.410866666667     0.230766666667     0.457      
O        O      0.344133333333     0.599633333333     0.226666666667     0.457      
O        O      0.372200000000     0.576700000000     0.179766666667     0.457      
O        O      0.379666666667     0.646133333333     0.308800000000     0.457      
O        O      0.398433333333     0.351833333333     0.031200000000     0.457      
O        O      0.487000000000     0.443633333333     0.039000000000     0.457      
O        O      0.493500000000     0.412233333333     0.081066666667     0.457      
O        O      0.452000000000     0.503300000000     0.017100000000     0.457      
O        O      0.428533333333     0.481833333333     0.294266666667     0.457      
O        O      0.359300000000     0.394400000000     0.313466666667     0.457      
O        O      0.646300000000     0.386366666667     0.267633333333     0.457      
O        O      0.606700000000     0.641233333333     0.078800000000     0.457      
O        O      0.567333333333     0.589133333333     0.102566666667     0.457      
O        O      0.655866666667     0.400366666667     0.106666666667     0.457      
O        O      0.627800000000     0.423300000000     0.153566666667     0.457      
O        O      0.620333333333     0.353866666667     0.357866666667     0.457      
O        O      0.601566666667     0.648166666667     0.635466666667     0.457      
O        O      0.513000000000     0.556366666667     0.627666666667     0.457      
O        O      0.506500000000     0.587766666667     0.585600000000     0.457      
O        O      0.548000000000     0.496700000000     0.649566666667     0.457      
O        O      0.571466666667     0.518166666667     0.372400000000     0.457      
O        O      0.640700000000     0.605600000000     0.353200000000     0.457      
O        O      0.353700000000     0.613633333333     0.399033333333     0.457      
O        O      0.393300000000     0.358766666667     0.587866666667     0.457      
O        O      0.432666666667     0.410866666667     0.564100000000     0.457      
O        O      0.344133333333     0.599633333333     0.560000000000     0.457      
O        O      0.372200000000     0.576700000000     0.513100000000     0.457      
O        O      0.379666666667     0.646133333333     0.642133333333     0.457      
O        O      0.398433333333     0.351833333333     0.364533333333     0.457      
O        O      0.487000000000     0.443633333333     0.372333333333     0.457      
O        O      0.493500000000     0.412233333333     0.414400000000     0.457      
O        O      0.452000000000     0.503300000000     0.350433333333     0.457      
O        O      0.428533333333     0.481833333333     0.627600000000     0.457      
O        O      0.359300000000     0.394400000000     0.646800000000     0.457      
O        O      0.646300000000     0.386366666667     0.600966666667     0.457      
O        O      0.606700000000     0.641233333333     0.412133333333     0.457      
O        O      0.567333333333     0.589133333333     0.435900000000     0.457      
O        O      0.655866666667     0.400366666667     0.440000000000     0.457      
O        O      0.627800000000     0.423300000000     0.486900000000     0.457      
O        O      0.620333333333     0.353866666667     0.691200000000     0.457      
O        O      0.601566666667     0.648166666667     0.968800000000     0.457      
O        O      0.513000000000     0.556366666667     0.961000000000     0.457      
O        O      0.506500000000     0.587766666667     0.918933333333     0.457      
O        O      0.548000000000     0.496700000000     0.982900000000     0.457      
O        O      0.571466666667     0.518166666667     0.705733333333     0.457      
O        O      0.640700000000     0.605600000000     0.686533333333     0.457      
O        O      0.353700000000     0.613633333333     0.732366666667     0.457      
O        O      0.393300000000     0.358766666667     0.921200000000     0.457      
O        O      0.432666666667     0.410866666667     0.897433333333     0.457      
O        O      0.344133333333     0.599633333333     0.893333333333     0.457      
O        O      0.372200000000     0.576700000000     0.846433333333     0.457      
O        O      0.379666666667     0.646133333333     0.975466666667     0.457      
O        O      0.398433333333     0.351833333333     0.697866666667     0.457      
O        O      0.487000000000     0.443633333333     0.705666666667     0.457      
O        O      0.493500000000     0.412233333333     0.747733333333     0.457      
O        O      0.452000000000     0.503300000000     0.683766666667     0.457      
O        O      0.428533333333     0.481833333333     0.960933333333     0.457      
O        O      0.359300000000     0.394400000000     0.980133333333     0.457      
O        O      0.646300000000     0.386366666667     0.934300000000     0.457      
O        O      0.606700000000     0.641233333333     0.745466666667     0.457      
O        O      0.567333333333     0.589133333333     0.769233333333     0.457      
O        O      0.655866666667     0.400366666667     0.773333333333     0.457      
O        O      0.627800000000     0.423300000000     0.820233333333     0.457      
O        O      0.620333333333     0.687200000000     0.024533333333     0.457      
O        O      0.601566666667     0.981500000000     0.302133333333     0.457      
O        O      0.513000000000     0.889700000000     0.294333333333     0.457      
O        O      0.506500000000     0.921100000000     0.252266666667     0.457      
O        O      0.548000000000     0.830033333333     0.316233333333     0.457      
O        O      0.571466666667     0.851500000000     0.039066666667     0.457      
O        O      0.640700000000     0.938933333333     0.019866666667     0.457      
O        O      0.353700000000     0.946966666667     0.065700000000     0.457      
O        O      0.393300000000     0.692100000000     0.254533333333     0.457      
O        O      0.432666666667     0.744200000000     0.230766666667     0.457      
O        O      0.344133333333     0.932966666667     0.226666666667     0.457      
O        O      0.372200000000     0.910033333333     0.179766666667     0.457      
O        O      0.379666666667     0.979466666667     0.308800000000     0.457      
O        O      0.398433333333     0.685166666667     0.031200000000     0.457      
O        O      0.487000000000     0.776966666667     0.039000000000     0.457      
O        O      0.493500000000     0.745566666667     0.081066666667     0.457      
O        O      0.452000000000     0.836633333333     0.017100000000     0.457      
O        O      0.428533333333     0.815166666667     0.294266666667     0.457      
O        O      0.359300000000     0.727733333333     0.313466666667     0.457      
O        O      0.646300000000     0.719700000000     0.267633333333     0.457      
O        O      0.606700000000     0.974566666667     0.078800000000     0.457      
O        O      0.567333333333     0.922466666667     0.102566666667     0.457      
O        O      0.655866666667     0.733700000000     0.106666666667     0.457      
O        O      0.627800000000     0.756633333333     0.153566666667     0.457      
O        O      0.620333333333     0.687200000000     0.357866666667     0.457      
O        O      0.601566666667     0.981500000000     0.635466666667     0.457      
O        O      0.513000000000     0.889700000000     0.627666666667     0.457      
O        O      0.506500000000     0.921100000000     0.585600000000     0.457      
O        O      0.548000000000     0.830033333333     0.649566666667     0.457      
O        O      0.571466666667     0.851500000000     0.372400000000     0.457      
O        O      0.640700000000     0.938933333333     0.353200000000     0.457      
O        O      0.353700000000     0.946966666667     0.399033333333     0.457      
O        O      0.393300000000     0.692100000000     0.587866666667     0.457      
O        O      0.432666666667     0.744200000000     0.564100000000     0.457      
O        O      0.344133333333     0.932966666667     0.560000000000     0.457      
O        O      0.372200000000     0.910033333333     0.513100000000     0.457      
O        O      0.379666666667     0.979466666667     0.642133333333     0.457      
O        O      0.398433333333     0.685166666667     0.364533333333     0.457      
O        O      0.487000000000     0.776966666667     0.372333333333     0.457      
O        O      0.493500000000     0.745566666667     0.414400000000     0.457      
O        O      0.452000000000     0.836633333333     0.350433333333     0.457      
O        O      0.428533333333     0.815166666667     0.627600000000     0.457      
O        O      0.359300000000     0.727733333333     0.646800000000     0.457      
O        O      0.646300000000     0.719700000000     0.600966666667     0.457      
O        O      0.606700000000     0.974566666667     0.412133333333     0.457      
O        O      0.567333333333     0.922466666667     0.435900000000     0.457      
O        O      0.655866666667     0.733700000000     0.440000000000     0.457      
O        O      0.627800000000     0.756633333333     0.486900000000     0.457      
O        O      0.620333333333     0.687200000000     0.691200000000     0.457      
O        O      0.601566666667     0.981500000000     0.968800000000     0.457      
O        O      0.513000000000     0.889700000000     0.961000000000     0.457      
O        O      0.506500000000     0.921100000000     0.918933333333     0.457      
O        O      0.548000000000     0.830033333333     0.982900000000     0.457      
O        O      0.571466666667     0.851500000000     0.705733333333     0.457      
O        O      0.640700000000     0.938933333333     0.686533333333     0.457      
O        O      0.353700000000     0.946966666667     0.732366666667     0.457      
O        O      0.393300000000     0.692100000000     0.921200000000     0.457      
O        O      0.432666666667     0.744200000000     0.897433333333     0.457      
O        O      0.344133333333     0.932966666667     0.893333333333     0.457      
O        O      0.372200000000     0.910033333333     0.846433333333     0.457      
O        O      0.379666666667     0.979466666667     0.975466666667     0.457      
O        O      0.398433333333     0.685166666667     0.697866666667     0.457      
O        O      0.487000000000     0.776966666667     0.705666666667     0.457      
O        O      0.493500000000     0.745566666667     0.747733333333     0.457      
O        O      0.452000000000     0.836633333333     0.683766666667     0.457      
O        O      0.428533333333     0.815166666667     0.960933333333     0.457      
O        O      0.359300000000     0.727733333333     0.980133333333     0.457      
O        O      0.646300000000     0.719700000000     0.934300000000     0.457      
O        O      0.606700000000     0.974566666667     0.745466666667     0.457      
O        O      0.567333333333     0.922466666667     0.769233333333     0.457      
O        O      0.655866666667     0.733700000000     0.773333333333     0.457      
O        O      0.627800000000     0.756633333333     0.820233333333     0.457      
O        O      0.953666666667     0.020533333333     0.024533333333     0.457      
O        O      0.934900000000     0.314833333333     0.302133333333     0.457      
O        O      0.846333333333     0.223033333333     0.294333333333     0.457      
O        O      0.839833333333     0.254433333333     0.252266666667     0.457      
O        O      0.881333333333     0.163366666667     0.316233333333     0.457      
O        O      0.904800000000     0.184833333333     0.039066666667     0.457      
O        O      0.974033333333     0.272266666667     0.019866666667     0.457      
O        O      0.687033333333     0.280300000000     0.065700000000     0.457      
O        O      0.726633333333     0.025433333333     0.254533333333     0.457      
O        O      0.766000000000     0.077533333333     0.230766666667     0.457      
O        O      0.677466666667     0.266300000000     0.226666666667     0.457      
O        O      0.705533333333     0.243366666667     0.179766666667     0.457      
O        O      0.713000000000     0.312800000000     0.308800000000     0.457      
O        O      0.731766666667     0.018500000000     0.031200000000     0.457      
O        O      0.820333333333     0.110300000000     0.039000000000     0.457      
O        O      0.826833333333     0.078900000000     0.081066666667     0.457      
O        O      0.785333333333     0.169966666667     0.017100000000     0.457      
O        O      0.761866666667     0.148500000000     0.294266666667     0.457      
O        O      0.692633333333     0.061066666667     0.313466666667     0.457      
O        O      0.979633333333     0.053033333333     0.267633333333     0.457      
O        O      0.940033333333     0.307900000000     0.078800000000     0.457      
O        O      0.900666666667     0.255800000000     0.102566666667     0.457      
O        O      0.989200000000     0.067033333333     0.106666666667     0.457      
O        O      0.961133333333     0.089966666667     0.153566666667     0.457      
O        O      0.953666666667     0.020533333333     0.357866666667     0.457      
O        O      0.934900000000     0.314833333333     0.635466666667     0.457      
O        O      0.846333333333     0.223033333333     0.627666666667     0.457      
O        O      0.839833333333     0.254433333333     0.585600000000     0.457      
O        O      0.881333333333     0.163366666667     0.649566666667     0.457      
O        O      0.904800000000     0.184833333333     0.372400000000     0.457      
O        O      0.974033333333     0.272266666667     0.353200000000     0.457      
O        O      0.687033333333     0.280300000000     0.399033333333     0.457      
O        O      0.726633333333     0.025433333333     0.587866666667     0.457      
O        O      0.766000000000     0.077533333333     0.564100000000     0.457      
O        O      0.677466666667     0.266300000000     0.560000000000     0.457      
O        O      0.705533333333     0.243366666667     0.513100000000     0.457      
O        O      0.713000000000     0.312800000000     0.642133333333     0.457      
O        O      0.731766666667     0.018500000000     0.364533333333     0.457      
O        O      0.820333333333     0.110300000000     0.372333333333     0.457      
O        O      0.826833333333     0.078900000000     0.414400000000     0.457      
O        O      0.785333333333     0.169966666667     0.350433333333     0.457      
O        O      0.761866666667     0.148500000000     0.627600000000     0.457      
O        O      0.692633333333     0.061066666667     0.646800000000     0.457      
O        O      0.979633333333     0.053033333333     0.600966666667     0.457      
O        O      0.940033333333     0.307900000000     0.412133333333     0.457      
O        O      0.900666666667     0.255800000000     0.435900000000     0.457      
O        O      0.989200000000     0.067033333333     0.440000000000     0.457      
O        O      0.961133333333     0.089966666667     0.486900000000     0.457      
O        O      0.953666666667     0.020533333333     0.691200000000     0.457      
O        O      0.934900000000     0.314833333333     0.968800000000     0.457      
O        O      0.846333333333     0.223033333333     0.961000000000     0.457      
O        O      0.839833333333     0.254433333333     0.918933333333     0.457      
O        O      0.881333333333     0.163366666667     0.982900000000     0.457      
O        O      0.904800000000     0.184833333333     0.705733333333     0.457      
O        O      0.974033333333     0.272266666667     0.686533333333     0.457      
O        O      0.687033333333     0.280300000000     0.732366666667     0.457      
O        O      0.726633333333     0.025433333333     0.921200000000     0.457      
O        O      0.766000000000     0.077533333333     0.897433333333     0.457      
O        O      0.677466666667     0.266300000000     0.893333333333     0.457      
O        O      0.705533333333     0.243366666667     0.846433333333     0.457      
O        O      0.713000000000     0.312800000000     0.975466666667     0.457      
O        O      0.731766666667     0.018500000000     0.697866666667     0.457      
O        O      0.820333333333     0.110300000000     0.705666666667     0.457      
O        O      0.826833333333     0.078900000000     0.747733333333     0.457      
O        O      0.785333333333     0.169966666667     0.683766666667     0.457      
O        O      0.761866666667     0.148500000000     0.960933333333     0.457      
O        O      0.692633333333     0.061066666667     0.980133333333     0.457      
O        O      0.979633333333     0.053033333333     0.934300000000     0.457      
O        O      0.940033333333     0.307900000000     0.745466666667     0.457      
O        O      0.900666666667     0.255800000000     0.769233333333     0.457      
O        O      0.989200000000     0.067033333333     0.773333333333     0.457      
O        O      0.961133333333     0.089966666667     0.820233333333     0.457      
O        O      0.953666666667     0.353866666667     0.024533333333     0.457      
O        O      0.934900000000     0.648166666667     0.302133333333     0.457      
O        O      0.846333333333     0.556366666667     0.294333333333     0.457      
O        O      0.839833333333     0.587766666667     0.252266666667     0.457      
O        O      0.881333333333     0.496700000000     0.316233333333     0.457      
O        O      0.904800000000     0.518166666667     0.039066666667     0.457      
O        O      0.974033333333     0.605600000000     0.019866666667     0.457      
O        O      0.687033333333     0.613633333333     0.065700000000     0.457      
O        O      0.726633333333     0.358766666667     0.254533333333     0.457      
O        O      0.766000000000     0.410866666667     0.230766666667     0.457      
O        O      0.677466666667     0.599633333333     0.226666666667     0.457      
O        O      0.705533333333     0.576700000000     0.179766666667     0.457      
O        O      0.713000000000     0.646133333333     0.308800000000     0.457      
O        O      0.731766666667     0.351833333333     0.031200000000     0.457      
O        O      0.820333333333     0.443633333333     0.039000000000     0.457      
O        O      0.826833333333     0.412233333333     0.081066666667     0.457      
O        O      0.785333333333     0.503300000000     0.017100000000     0.457      
O        O      0.761866666667     0.481833333333     0.294266666667     0.457      
O        O      0.692633333333     0.394400000000     0.313466666667     0.457      
O        O      0.979633333333     0.386366666667     0.267633333333     0.457      
O        O      0.940033333333     0.641233333333     0.078800000000     0.457      
O        O      0.900666666667     0.589133333333     0.102566666667     0.457      
O        O      0.989200000000     0.400366666667     0.106666666667     0.457      
O        O      0.961133333333     0.423300000000     0.153566666667     0.457      
O        O      0.953666666667     0.353866666667     0.357866666667     0.457      
O        O      0.934900000000     0.648166666667     0.635466666667     0.457      
O        O      0.846333333333     0.556366666667     0.627666666667     0.457      
O        O      0.839833333333     0.587766666667     0.585600000000     0.457      
O        O      0.881333333333     0.496700000000     0.649566666667     0.457      
O        O      0.904800000000     0.518166666667     0.372400000000     0.457      
O        O      0.974033333333     0.605600000000     0.353200000000     0.457      
O        O      0.687033333333     0.613633333333     0.399033333333     0.457      
O        O      0.726633333333     0.358766666667     0.587866666667     0.457      
O        O      0.766000000000     0.410866666667     0.564100000000     0.457      
O        O      0.677466666667     0.599633333333     0.560000000000     0.457      
O        O      0.705533333333     0.576700000000     0.513100000000     0.457      
O        O      0.713000000000     0.646133333333     0.642133333333     0.457      
O        O      0.731766666667     0.351833333333     0.364533333333     0.457      
O        O      0.820333333333     0.443633333333     0.372333333333     0.457      
O        O      0.826833333333     0.412233333333     0.414400000000     0.457      
O        O      0.785333333333     0.503300000000     0.350433333333     0.457      
O        O      0.761866666667     0.481833333333     0.627600000000     0.457      
O        O      0.692633333333     0.394400000000     0.646800000000     0.457      
O        O      0.979633333333     0.386366666667     0.600966666667     0.457      
O        O      0.940033333333     0.641233333333     0.412133333333     0.457      
O        O      0.900666666667     0.589133333333     0.435900000000     0.457      
O        O      0.989200000000     0.400366666667     0.440000000000     0.457      
O        O      0.961133333333     0.423300000000     0.486900000000     0.457      
O        O      0.953666666667     0.353866666667     0.691200000000     0.457      
O        O      0.934900000000     0.648166666667     0.968800000000     0.457      
O        O      0.846333333333     0.556366666667     0.961000000000     0.457      
O        O      0.839833333333     0.587766666667     0.918933333333     0.457      
O        O      0.881333333333     0.496700000000     0.982900000000     0.457      
O        O      0.904800000000     0.518166666667     0.705733333333     0.457      
O        O      0.974033333333     0.605600000000     0.686533333333     0.457      
O        O      0.687033333333     0.613633333333     0.732366666667     0.457      
O        O      0.726633333333     0.358766666667     0.921200000000     0.457      
O        O      0.766000000000     0.410866666667     0.897433333333     0.457      
O        O      0.677466666667     0.599633333333     0.893333333333     0.457      
O        O      0.705533333333     0.576700000000     0.846433333333     0.457      
O        O      0.713000000000     0.646133333333     0.975466666667     0.457      
O        O      0.731766666667     0.351833333333     0.697866666667     0.457      
O        O      0.820333333333     0.443633333333     0.705666666667     0.457      
O        O      0.826833333333     0.412233333333     0.747733333333     0.457      
O        O      0.785333333333     0.503300000000     0.683766666667     0.457      
O        O      0.761866666667     0.481833333333     0.960933333333     0.457      
O        O      0.692633333333     0.394400000000     0.980133333333     0.457      
O        O      0.979633333333     0.386366666667     0.934300000000     0.457      
O        O      0.940033333333     0.641233333333     0.745466666667     0.457      
O        O      0.900666666667     0.589133333333     0.769233333333     0.457      
O        O      0.989200000000     0.400366666667     0.773333333333     0.457      
O        O      0.961133333333     0.423300000000     0.820233333333     0.457      
O        O      0.953666666667     0.687200000000     0.024533333333     0.457      
O        O      0.934900000000     0.981500000000     0.302133333333     0.457      
O        O      0.846333333333     0.889700000000     0.294333333333     0.457      
O        O      0.839833333333     0.921100000000     0.252266666667     0.457      
O        O      0.881333333333     0.830033333333     0.316233333333     0.457      
O        O      0.904800000000     0.851500000000     0.039066666667     0.457      
O        O      0.974033333333     0.938933333333     0.019866666667     0.457      
O        O      0.687033333333     0.946966666667     0.065700000000     0.457      
O        O      0.726633333333     0.692100000000     0.254533333333     0.457      
O        O      0.766000000000     0.744200000000     0.230766666667     0.457      
O        O      0.677466666667     0.932966666667     0.226666666667     0.457      
O        O      0.705533333333     0.910033333333     0.179766666667     0.457      
O        O      0.713000000000     0.979466666667     0.308800000000     0.457      
O        O      0.731766666667     0.685166666667     0.031200000000     0.457      
O        O      0.820333333333     0.776966666667     0.039000000000     0.457      
O        O      0.826833333333     0.745566666667     0.081066666667     0.457      
O        O      0.785333333333     0.836633333333     0.017100000000     0.457      
O        O      0.761866666667     0.815166666667     0.294266666667     0.457      
O        O      0.692633333333     0.727733333333     0.313466666667     0.457      
O        O      0.979633333333     0.719700000000     0.267633333333     0.457      
O        O      0.940033333333     0.974566666667     0.078800000000     0.457      
O        O      0.900666666667     0.922466666667     0.102566666667     0.457      
O        O      0.989200000000     0.733700000000     0.106666666667     0.457      
O        O      0.961133333333     0.756633333333     0.153566666667     0.457      
O        O      0.953666666667     0.687200000000     0.357866666667     0.457      
O        O      0.934900000000     0.981500000000     0.635466666667     0.457      
O        O      0.846333333333     0.889700000000     0.627666666667     0.457      
O        O      0.839833333333     0.921100000000     0.585600000000     0.457      
O        O      0.881333333333     0.830033333333     0.649566666667     0.457      
O        O      0.904800000000     0.851500000000     0.372400000000     0.457      
O        O      0.974033333333     0.938933333333     0.353200000000     0.457      
O        O      0.687033333333     0.946966666667     0.399033333333     0.457      
O        O      0.726633333333     0.692100000000     0.587866666667     0.457      
O        O      0.766000000000     0.744200000000     0.564100000000     0.457      
O        O      0.677466666667     0.932966666667     0.560000000000     0.457      
O        O      0.705533333333     0.910033333333     0.513100000000     0.457      
O        O      0.713000000000     0.979466666667     0.642133333333     0.457      
O        O      0.731766666667     0.685166666667     0.364533333333     0.457      
O        O      0.820333333333     0.776966666667     0.372333333333     0.457      
O        O      0.826833333333     0.745566666667     0.414400000000     0.457      
O        O      0.785333333333     0.836633333333     0.350433333333     0.457      
O        O      0.761866666667     0.815166666667     0.627600000000     0.457      
O        O      0.692633333333     0.727733333333     0.646800000000     0.457      
O        O      0.979633333333     0.719700000000     0.600966666667     0.457      
O        O      0.940033333333     0.974566666667     0.412133333333     0.457      
O        O      0.900666666667     0.922466666667     0.435900000000     0.457      
O        O      0.989200000000     0.733700000000     0.440000000000     0.457      
O        O      0.961133333333     0.756633333333     0.486900000000     0.457      
O        O      0.953666666667     0.687200000000     0.691200000000     0.457      
O        O      0.934900000000     0.981500000000     0.968800000000     0.457      
O        O      0.846333333333     0.889700000000     0.961000000000     0.457      
O        O      0.839833333333     0.921100000000     0.918933333333     0.457      
O        O      0.881333333333     0.830033333333     0.982900000000     0.457      
O        O      0.904800000000     0.851500000000     0.705733333333     0.457      
O        O      0.974033333333     0.938933333333     0.686533333333     0.457      
O        O      0.687033333333     0.946966666667     0.732366666667     0.457      
O        O      0.726633333333     0.692100000000     0.921200000000     0.457      
O        O      0.766000000000     0.744200000000     0.897433333333     0.457      
O        O      0.677466666667     0.932966666667     0.893333333333     0.457      
O        O      0.705533333333     0.910033333333     0.846433333333     0.457      
O        O      0.713000000000     0.979466666667     0.975466666667     0.457      
O        O      0.731766666667     0.685166666667     0.697866666667     0.457      
O        O      0.820333333333     0.776966666667     0.705666666667     0.457      
O        O      0.826833333333     0.745566666667     0.747733333333     0.457      
O        O      0.785333333333     0.836633333333     0.683766666667     0.457      
O        O      0.761866666667     0.815166666667     0.960933333333     0.457      
O        O      0.692633333333     0.727733333333     0.980133333333     0.457      
O        O      0.979633333333     0.719700000000     0.934300000000     0.457      
O        O      0.940033333333     0.974566666667     0.745466666667     0.457      
O        O      0.900666666667     0.922466666667     0.769233333333     0.457      
O        O      0.989200000000     0.733700000000     0.773333333333     0.457      
O        O      0.961133333333     0.756633333333     0.820233333333     0.457      


