data_PEGBAG_clean

_audit_creation_method RASPA-1.0
_audit_creation_date 2025-9-8
_audit_author_name ''

_cell_length_a    10.5783
_cell_length_b    12.3288
_cell_length_c    17.236
_cell_angle_alpha 90
_cell_angle_beta  93.714
_cell_angle_gamma 90
_cell_volume      40376.9

_symmetry_cell_setting          triclinic
_symmetry_space_group_name_Hall 'P 1'
_symmetry_space_group_name_H-M  'P 1'
_symmetry_Int_Tables_number     1

_symmetry_equiv_pos_as_xyz 'x,y,z'

loop_
_atom_site_label
_atom_site_type_symbol
_atom_site_fract_x
_atom_site_fract_y
_atom_site_fract_z
_atom_site_charge
C        C      0.141466666667     0.053433333333     0.117790000000     0.154      
C        C      0.105933333333     0.079966666667     0.115695000000     0.154      
C        C      0.056600000000     0.115000000000     0.094030000000     0.154      
C        C      0.027400000000     0.136933333333     0.066910000000     0.154      
C        C      0.015733333333     0.119366666667     0.028400000000     0.154      
C        C      0.020366666667     0.092033333333     0.474440000000     0.154      
C        C      0.037833333333     0.071900000000     0.441710000000     0.154      
C        C      0.023533333333     0.014600000000     0.178100000000     0.154      
C        C      0.014366666667     0.040333333333     0.209430000000     0.154      
C        C      0.020833333333     0.083203333333     0.250820000000     0.154      
C        C      0.038766666667     0.113366666667     0.275650000000     0.154      
C        C      0.057800000000     0.142800000000     0.252615000000     0.154      
C        C      0.095666666667     0.169600000000     0.212720000000     0.154      
C        C      0.127000000000     0.177233333333     0.183215000000     0.154      
C        C      0.025200000000     0.220100000000     0.132210000000     0.154      
C        C      0.060733333333     0.246633333333     0.134305000000     0.154      
C        C      0.110066666667     0.281666666667     0.155970000000     0.154      
C        C      0.139266666667     0.303600000000     0.183090000000     0.154      
C        C      0.150933333333     0.286033333333     0.221600000000     0.154      
C        C      0.146300000000     0.258700000000     0.275560000000     0.154      
C        C      0.128833333333     0.238566666667     0.308290000000     0.154      
C        C      0.143133333333     0.181266666667     0.071900000000     0.154      
C        C      0.152300000000     0.207000000000     0.040570000000     0.154      
C        C      0.145833333333     0.249870000000     0.499180000000     0.154      
C        C      0.127900000000     0.280033333333     0.474350000000     0.154      
C        C      0.108866666667     0.309466666667     0.497385000000     0.154      
C        C      0.071000000000     0.002933333333     0.037280000000     0.154      
C        C      0.039666666667     0.010566666667     0.066785000000     0.154      
C        C      0.191866666667     0.279900000000     0.382210000000     0.154      
C        C      0.227400000000     0.253366666667     0.384305000000     0.154      
C        C      0.276733333333     0.218333333333     0.405970000000     0.154      
C        C      0.305933333333     0.196400000000     0.433090000000     0.154      
C        C      0.317600000000     0.213966666667     0.471600000000     0.154      
C        C      0.312966666667     0.241300000000     0.025560000000     0.154      
C        C      0.295500000000     0.261433333333     0.058290000000     0.154      
C        C      0.309800000000     0.318733333333     0.321900000000     0.154      
C        C      0.318966666667     0.293000000000     0.290570000000     0.154      
C        C      0.312500000000     0.250130000000     0.249180000000     0.154      
C        C      0.294566666667     0.219966666667     0.224350000000     0.154      
C        C      0.275533333333     0.190533333333     0.247385000000     0.154      
C        C      0.237666666667     0.163733333333     0.287280000000     0.154      
C        C      0.206333333333     0.156100000000     0.316785000000     0.154      
C        C      0.308133333333     0.113233333333     0.367790000000     0.154      
C        C      0.272600000000     0.086700000000     0.365695000000     0.154      
C        C      0.223266666667     0.051666666667     0.344030000000     0.154      
C        C      0.194066666667     0.029733333333     0.316910000000     0.154      
C        C      0.182400000000     0.047300000000     0.278400000000     0.154      
C        C      0.187033333333     0.074633333333     0.224440000000     0.154      
C        C      0.204500000000     0.094766666667     0.191710000000     0.154      
C        C      0.190200000000     0.152066666667     0.428100000000     0.154      
C        C      0.181033333333     0.126333333333     0.459430000000     0.154      
C        C      0.187500000000     0.083463333333     0.000820000000     0.154      
C        C      0.205433333333     0.053300000000     0.025650000000     0.154      
C        C      0.224466666667     0.023866666667     0.002615000000     0.154      
C        C      0.262333333333     0.330400000000     0.462720000000     0.154      
C        C      0.293666666667     0.322766666667     0.433215000000     0.154      
C        C      0.141466666667     0.053433333333     0.617790000000     0.154      
C        C      0.105933333333     0.079966666667     0.615695000000     0.154      
C        C      0.056600000000     0.115000000000     0.594030000000     0.154      
C        C      0.027400000000     0.136933333333     0.566910000000     0.154      
C        C      0.015733333333     0.119366666667     0.528400000000     0.154      
C        C      0.020366666667     0.092033333333     0.974440000000     0.154      
C        C      0.037833333333     0.071900000000     0.941710000000     0.154      
C        C      0.023533333333     0.014600000000     0.678100000000     0.154      
C        C      0.014366666667     0.040333333333     0.709430000000     0.154      
C        C      0.020833333333     0.083203333333     0.750820000000     0.154      
C        C      0.038766666667     0.113366666667     0.775650000000     0.154      
C        C      0.057800000000     0.142800000000     0.752615000000     0.154      
C        C      0.095666666667     0.169600000000     0.712720000000     0.154      
C        C      0.127000000000     0.177233333333     0.683215000000     0.154      
C        C      0.025200000000     0.220100000000     0.632210000000     0.154      
C        C      0.060733333333     0.246633333333     0.634305000000     0.154      
C        C      0.110066666667     0.281666666667     0.655970000000     0.154      
C        C      0.139266666667     0.303600000000     0.683090000000     0.154      
C        C      0.150933333333     0.286033333333     0.721600000000     0.154      
C        C      0.146300000000     0.258700000000     0.775560000000     0.154      
C        C      0.128833333333     0.238566666667     0.808290000000     0.154      
C        C      0.143133333333     0.181266666667     0.571900000000     0.154      
C        C      0.152300000000     0.207000000000     0.540570000000     0.154      
C        C      0.145833333333     0.249870000000     0.999180000000     0.154      
C        C      0.127900000000     0.280033333333     0.974350000000     0.154      
C        C      0.108866666667     0.309466666667     0.997385000000     0.154      
C        C      0.071000000000     0.002933333333     0.537280000000     0.154      
C        C      0.039666666667     0.010566666667     0.566785000000     0.154      
C        C      0.191866666667     0.279900000000     0.882210000000     0.154      
C        C      0.227400000000     0.253366666667     0.884305000000     0.154      
C        C      0.276733333333     0.218333333333     0.905970000000     0.154      
C        C      0.305933333333     0.196400000000     0.933090000000     0.154      
C        C      0.317600000000     0.213966666667     0.971600000000     0.154      
C        C      0.312966666667     0.241300000000     0.525560000000     0.154      
C        C      0.295500000000     0.261433333333     0.558290000000     0.154      
C        C      0.309800000000     0.318733333333     0.821900000000     0.154      
C        C      0.318966666667     0.293000000000     0.790570000000     0.154      
C        C      0.312500000000     0.250130000000     0.749180000000     0.154      
C        C      0.294566666667     0.219966666667     0.724350000000     0.154      
C        C      0.275533333333     0.190533333333     0.747385000000     0.154      
C        C      0.237666666667     0.163733333333     0.787280000000     0.154      
C        C      0.206333333333     0.156100000000     0.816785000000     0.154      
C        C      0.308133333333     0.113233333333     0.867790000000     0.154      
C        C      0.272600000000     0.086700000000     0.865695000000     0.154      
C        C      0.223266666667     0.051666666667     0.844030000000     0.154      
C        C      0.194066666667     0.029733333333     0.816910000000     0.154      
C        C      0.182400000000     0.047300000000     0.778400000000     0.154      
C        C      0.187033333333     0.074633333333     0.724440000000     0.154      
C        C      0.204500000000     0.094766666667     0.691710000000     0.154      
C        C      0.190200000000     0.152066666667     0.928100000000     0.154      
C        C      0.181033333333     0.126333333333     0.959430000000     0.154      
C        C      0.187500000000     0.083463333333     0.500820000000     0.154      
C        C      0.205433333333     0.053300000000     0.525650000000     0.154      
C        C      0.224466666667     0.023866666667     0.502615000000     0.154      
C        C      0.262333333333     0.330400000000     0.962720000000     0.154      
C        C      0.293666666667     0.322766666667     0.933215000000     0.154      
C        C      0.141466666667     0.386766666667     0.117790000000     0.154      
C        C      0.105933333333     0.413300000000     0.115695000000     0.154      
C        C      0.056600000000     0.448333333333     0.094030000000     0.154      
C        C      0.027400000000     0.470266666667     0.066910000000     0.154      
C        C      0.015733333333     0.452700000000     0.028400000000     0.154      
C        C      0.020366666667     0.425366666667     0.474440000000     0.154      
C        C      0.037833333333     0.405233333333     0.441710000000     0.154      
C        C      0.023533333333     0.347933333333     0.178100000000     0.154      
C        C      0.014366666667     0.373666666667     0.209430000000     0.154      
C        C      0.020833333333     0.416536666667     0.250820000000     0.154      
C        C      0.038766666667     0.446700000000     0.275650000000     0.154      
C        C      0.057800000000     0.476133333333     0.252615000000     0.154      
C        C      0.095666666667     0.502933333333     0.212720000000     0.154      
C        C      0.127000000000     0.510566666667     0.183215000000     0.154      
C        C      0.025200000000     0.553433333333     0.132210000000     0.154      
C        C      0.060733333333     0.579966666667     0.134305000000     0.154      
C        C      0.110066666667     0.615000000000     0.155970000000     0.154      
C        C      0.139266666667     0.636933333333     0.183090000000     0.154      
C        C      0.150933333333     0.619366666667     0.221600000000     0.154      
C        C      0.146300000000     0.592033333333     0.275560000000     0.154      
C        C      0.128833333333     0.571900000000     0.308290000000     0.154      
C        C      0.143133333333     0.514600000000     0.071900000000     0.154      
C        C      0.152300000000     0.540333333333     0.040570000000     0.154      
C        C      0.145833333333     0.583203333333     0.499180000000     0.154      
C        C      0.127900000000     0.613366666667     0.474350000000     0.154      
C        C      0.108866666667     0.642800000000     0.497385000000     0.154      
C        C      0.071000000000     0.336266666667     0.037280000000     0.154      
C        C      0.039666666667     0.343900000000     0.066785000000     0.154      
C        C      0.191866666667     0.613233333333     0.382210000000     0.154      
C        C      0.227400000000     0.586700000000     0.384305000000     0.154      
C        C      0.276733333333     0.551666666667     0.405970000000     0.154      
C        C      0.305933333333     0.529733333333     0.433090000000     0.154      
C        C      0.317600000000     0.547300000000     0.471600000000     0.154      
C        C      0.312966666667     0.574633333333     0.025560000000     0.154      
C        C      0.295500000000     0.594766666667     0.058290000000     0.154      
C        C      0.309800000000     0.652066666667     0.321900000000     0.154      
C        C      0.318966666667     0.626333333333     0.290570000000     0.154      
C        C      0.312500000000     0.583463333333     0.249180000000     0.154      
C        C      0.294566666667     0.553300000000     0.224350000000     0.154      
C        C      0.275533333333     0.523866666667     0.247385000000     0.154      
C        C      0.237666666667     0.497066666667     0.287280000000     0.154      
C        C      0.206333333333     0.489433333333     0.316785000000     0.154      
C        C      0.308133333333     0.446566666667     0.367790000000     0.154      
C        C      0.272600000000     0.420033333333     0.365695000000     0.154      
C        C      0.223266666667     0.385000000000     0.344030000000     0.154      
C        C      0.194066666667     0.363066666667     0.316910000000     0.154      
C        C      0.182400000000     0.380633333333     0.278400000000     0.154      
C        C      0.187033333333     0.407966666667     0.224440000000     0.154      
C        C      0.204500000000     0.428100000000     0.191710000000     0.154      
C        C      0.190200000000     0.485400000000     0.428100000000     0.154      
C        C      0.181033333333     0.459666666667     0.459430000000     0.154      
C        C      0.187500000000     0.416796666667     0.000820000000     0.154      
C        C      0.205433333333     0.386633333333     0.025650000000     0.154      
C        C      0.224466666667     0.357200000000     0.002615000000     0.154      
C        C      0.262333333333     0.663733333333     0.462720000000     0.154      
C        C      0.293666666667     0.656100000000     0.433215000000     0.154      
C        C      0.141466666667     0.386766666667     0.617790000000     0.154      
C        C      0.105933333333     0.413300000000     0.615695000000     0.154      
C        C      0.056600000000     0.448333333333     0.594030000000     0.154      
C        C      0.027400000000     0.470266666667     0.566910000000     0.154      
C        C      0.015733333333     0.452700000000     0.528400000000     0.154      
C        C      0.020366666667     0.425366666667     0.974440000000     0.154      
C        C      0.037833333333     0.405233333333     0.941710000000     0.154      
C        C      0.023533333333     0.347933333333     0.678100000000     0.154      
C        C      0.014366666667     0.373666666667     0.709430000000     0.154      
C        C      0.020833333333     0.416536666667     0.750820000000     0.154      
C        C      0.038766666667     0.446700000000     0.775650000000     0.154      
C        C      0.057800000000     0.476133333333     0.752615000000     0.154      
C        C      0.095666666667     0.502933333333     0.712720000000     0.154      
C        C      0.127000000000     0.510566666667     0.683215000000     0.154      
C        C      0.025200000000     0.553433333333     0.632210000000     0.154      
C        C      0.060733333333     0.579966666667     0.634305000000     0.154      
C        C      0.110066666667     0.615000000000     0.655970000000     0.154      
C        C      0.139266666667     0.636933333333     0.683090000000     0.154      
C        C      0.150933333333     0.619366666667     0.721600000000     0.154      
C        C      0.146300000000     0.592033333333     0.775560000000     0.154      
C        C      0.128833333333     0.571900000000     0.808290000000     0.154      
C        C      0.143133333333     0.514600000000     0.571900000000     0.154      
C        C      0.152300000000     0.540333333333     0.540570000000     0.154      
C        C      0.145833333333     0.583203333333     0.999180000000     0.154      
C        C      0.127900000000     0.613366666667     0.974350000000     0.154      
C        C      0.108866666667     0.642800000000     0.997385000000     0.154      
C        C      0.071000000000     0.336266666667     0.537280000000     0.154      
C        C      0.039666666667     0.343900000000     0.566785000000     0.154      
C        C      0.191866666667     0.613233333333     0.882210000000     0.154      
C        C      0.227400000000     0.586700000000     0.884305000000     0.154      
C        C      0.276733333333     0.551666666667     0.905970000000     0.154      
C        C      0.305933333333     0.529733333333     0.933090000000     0.154      
C        C      0.317600000000     0.547300000000     0.971600000000     0.154      
C        C      0.312966666667     0.574633333333     0.525560000000     0.154      
C        C      0.295500000000     0.594766666667     0.558290000000     0.154      
C        C      0.309800000000     0.652066666667     0.821900000000     0.154      
C        C      0.318966666667     0.626333333333     0.790570000000     0.154      
C        C      0.312500000000     0.583463333333     0.749180000000     0.154      
C        C      0.294566666667     0.553300000000     0.724350000000     0.154      
C        C      0.275533333333     0.523866666667     0.747385000000     0.154      
C        C      0.237666666667     0.497066666667     0.787280000000     0.154      
C        C      0.206333333333     0.489433333333     0.816785000000     0.154      
C        C      0.308133333333     0.446566666667     0.867790000000     0.154      
C        C      0.272600000000     0.420033333333     0.865695000000     0.154      
C        C      0.223266666667     0.385000000000     0.844030000000     0.154      
C        C      0.194066666667     0.363066666667     0.816910000000     0.154      
C        C      0.182400000000     0.380633333333     0.778400000000     0.154      
C        C      0.187033333333     0.407966666667     0.724440000000     0.154      
C        C      0.204500000000     0.428100000000     0.691710000000     0.154      
C        C      0.190200000000     0.485400000000     0.928100000000     0.154      
C        C      0.181033333333     0.459666666667     0.959430000000     0.154      
C        C      0.187500000000     0.416796666667     0.500820000000     0.154      
C        C      0.205433333333     0.386633333333     0.525650000000     0.154      
C        C      0.224466666667     0.357200000000     0.502615000000     0.154      
C        C      0.262333333333     0.663733333333     0.962720000000     0.154      
C        C      0.293666666667     0.656100000000     0.933215000000     0.154      
C        C      0.141466666667     0.720100000000     0.117790000000     0.154      
C        C      0.105933333333     0.746633333333     0.115695000000     0.154      
C        C      0.056600000000     0.781666666667     0.094030000000     0.154      
C        C      0.027400000000     0.803600000000     0.066910000000     0.154      
C        C      0.015733333333     0.786033333333     0.028400000000     0.154      
C        C      0.020366666667     0.758700000000     0.474440000000     0.154      
C        C      0.037833333333     0.738566666667     0.441710000000     0.154      
C        C      0.023533333333     0.681266666667     0.178100000000     0.154      
C        C      0.014366666667     0.707000000000     0.209430000000     0.154      
C        C      0.020833333333     0.749870000000     0.250820000000     0.154      
C        C      0.038766666667     0.780033333333     0.275650000000     0.154      
C        C      0.057800000000     0.809466666667     0.252615000000     0.154      
C        C      0.095666666667     0.836266666667     0.212720000000     0.154      
C        C      0.127000000000     0.843900000000     0.183215000000     0.154      
C        C      0.025200000000     0.886766666667     0.132210000000     0.154      
C        C      0.060733333333     0.913300000000     0.134305000000     0.154      
C        C      0.110066666667     0.948333333333     0.155970000000     0.154      
C        C      0.139266666667     0.970266666667     0.183090000000     0.154      
C        C      0.150933333333     0.952700000000     0.221600000000     0.154      
C        C      0.146300000000     0.925366666667     0.275560000000     0.154      
C        C      0.128833333333     0.905233333333     0.308290000000     0.154      
C        C      0.143133333333     0.847933333333     0.071900000000     0.154      
C        C      0.152300000000     0.873666666667     0.040570000000     0.154      
C        C      0.145833333333     0.916536666667     0.499180000000     0.154      
C        C      0.127900000000     0.946700000000     0.474350000000     0.154      
C        C      0.108866666667     0.976133333333     0.497385000000     0.154      
C        C      0.071000000000     0.669600000000     0.037280000000     0.154      
C        C      0.039666666667     0.677233333333     0.066785000000     0.154      
C        C      0.191866666667     0.946566666667     0.382210000000     0.154      
C        C      0.227400000000     0.920033333333     0.384305000000     0.154      
C        C      0.276733333333     0.885000000000     0.405970000000     0.154      
C        C      0.305933333333     0.863066666667     0.433090000000     0.154      
C        C      0.317600000000     0.880633333333     0.471600000000     0.154      
C        C      0.312966666667     0.907966666667     0.025560000000     0.154      
C        C      0.295500000000     0.928100000000     0.058290000000     0.154      
C        C      0.309800000000     0.985400000000     0.321900000000     0.154      
C        C      0.318966666667     0.959666666667     0.290570000000     0.154      
C        C      0.312500000000     0.916796666667     0.249180000000     0.154      
C        C      0.294566666667     0.886633333333     0.224350000000     0.154      
C        C      0.275533333333     0.857200000000     0.247385000000     0.154      
C        C      0.237666666667     0.830400000000     0.287280000000     0.154      
C        C      0.206333333333     0.822766666667     0.316785000000     0.154      
C        C      0.308133333333     0.779900000000     0.367790000000     0.154      
C        C      0.272600000000     0.753366666667     0.365695000000     0.154      
C        C      0.223266666667     0.718333333333     0.344030000000     0.154      
C        C      0.194066666667     0.696400000000     0.316910000000     0.154      
C        C      0.182400000000     0.713966666667     0.278400000000     0.154      
C        C      0.187033333333     0.741300000000     0.224440000000     0.154      
C        C      0.204500000000     0.761433333333     0.191710000000     0.154      
C        C      0.190200000000     0.818733333333     0.428100000000     0.154      
C        C      0.181033333333     0.793000000000     0.459430000000     0.154      
C        C      0.187500000000     0.750130000000     0.000820000000     0.154      
C        C      0.205433333333     0.719966666667     0.025650000000     0.154      
C        C      0.224466666667     0.690533333333     0.002615000000     0.154      
C        C      0.262333333333     0.997066666667     0.462720000000     0.154      
C        C      0.293666666667     0.989433333333     0.433215000000     0.154      
C        C      0.141466666667     0.720100000000     0.617790000000     0.154      
C        C      0.105933333333     0.746633333333     0.615695000000     0.154      
C        C      0.056600000000     0.781666666667     0.594030000000     0.154      
C        C      0.027400000000     0.803600000000     0.566910000000     0.154      
C        C      0.015733333333     0.786033333333     0.528400000000     0.154      
C        C      0.020366666667     0.758700000000     0.974440000000     0.154      
C        C      0.037833333333     0.738566666667     0.941710000000     0.154      
C        C      0.023533333333     0.681266666667     0.678100000000     0.154      
C        C      0.014366666667     0.707000000000     0.709430000000     0.154      
C        C      0.020833333333     0.749870000000     0.750820000000     0.154      
C        C      0.038766666667     0.780033333333     0.775650000000     0.154      
C        C      0.057800000000     0.809466666667     0.752615000000     0.154      
C        C      0.095666666667     0.836266666667     0.712720000000     0.154      
C        C      0.127000000000     0.843900000000     0.683215000000     0.154      
C        C      0.025200000000     0.886766666667     0.632210000000     0.154      
C        C      0.060733333333     0.913300000000     0.634305000000     0.154      
C        C      0.110066666667     0.948333333333     0.655970000000     0.154      
C        C      0.139266666667     0.970266666667     0.683090000000     0.154      
C        C      0.150933333333     0.952700000000     0.721600000000     0.154      
C        C      0.146300000000     0.925366666667     0.775560000000     0.154      
C        C      0.128833333333     0.905233333333     0.808290000000     0.154      
C        C      0.143133333333     0.847933333333     0.571900000000     0.154      
C        C      0.152300000000     0.873666666667     0.540570000000     0.154      
C        C      0.145833333333     0.916536666667     0.999180000000     0.154      
C        C      0.127900000000     0.946700000000     0.974350000000     0.154      
C        C      0.108866666667     0.976133333333     0.997385000000     0.154      
C        C      0.071000000000     0.669600000000     0.537280000000     0.154      
C        C      0.039666666667     0.677233333333     0.566785000000     0.154      
C        C      0.191866666667     0.946566666667     0.882210000000     0.154      
C        C      0.227400000000     0.920033333333     0.884305000000     0.154      
C        C      0.276733333333     0.885000000000     0.905970000000     0.154      
C        C      0.305933333333     0.863066666667     0.933090000000     0.154      
C        C      0.317600000000     0.880633333333     0.971600000000     0.154      
C        C      0.312966666667     0.907966666667     0.525560000000     0.154      
C        C      0.295500000000     0.928100000000     0.558290000000     0.154      
C        C      0.309800000000     0.985400000000     0.821900000000     0.154      
C        C      0.318966666667     0.959666666667     0.790570000000     0.154      
C        C      0.312500000000     0.916796666667     0.749180000000     0.154      
C        C      0.294566666667     0.886633333333     0.724350000000     0.154      
C        C      0.275533333333     0.857200000000     0.747385000000     0.154      
C        C      0.237666666667     0.830400000000     0.787280000000     0.154      
C        C      0.206333333333     0.822766666667     0.816785000000     0.154      
C        C      0.308133333333     0.779900000000     0.867790000000     0.154      
C        C      0.272600000000     0.753366666667     0.865695000000     0.154      
C        C      0.223266666667     0.718333333333     0.844030000000     0.154      
C        C      0.194066666667     0.696400000000     0.816910000000     0.154      
C        C      0.182400000000     0.713966666667     0.778400000000     0.154      
C        C      0.187033333333     0.741300000000     0.724440000000     0.154      
C        C      0.204500000000     0.761433333333     0.691710000000     0.154      
C        C      0.190200000000     0.818733333333     0.928100000000     0.154      
C        C      0.181033333333     0.793000000000     0.959430000000     0.154      
C        C      0.187500000000     0.750130000000     0.500820000000     0.154      
C        C      0.205433333333     0.719966666667     0.525650000000     0.154      
C        C      0.224466666667     0.690533333333     0.502615000000     0.154      
C        C      0.262333333333     0.997066666667     0.962720000000     0.154      
C        C      0.293666666667     0.989433333333     0.933215000000     0.154      
C        C      0.474800000000     0.053433333333     0.117790000000     0.154      
C        C      0.439266666667     0.079966666667     0.115695000000     0.154      
C        C      0.389933333333     0.115000000000     0.094030000000     0.154      
C        C      0.360733333333     0.136933333333     0.066910000000     0.154      
C        C      0.349066666667     0.119366666667     0.028400000000     0.154      
C        C      0.353700000000     0.092033333333     0.474440000000     0.154      
C        C      0.371166666667     0.071900000000     0.441710000000     0.154      
C        C      0.356866666667     0.014600000000     0.178100000000     0.154      
C        C      0.347700000000     0.040333333333     0.209430000000     0.154      
C        C      0.354166666667     0.083203333333     0.250820000000     0.154      
C        C      0.372100000000     0.113366666667     0.275650000000     0.154      
C        C      0.391133333333     0.142800000000     0.252615000000     0.154      
C        C      0.429000000000     0.169600000000     0.212720000000     0.154      
C        C      0.460333333333     0.177233333333     0.183215000000     0.154      
C        C      0.358533333333     0.220100000000     0.132210000000     0.154      
C        C      0.394066666667     0.246633333333     0.134305000000     0.154      
C        C      0.443400000000     0.281666666667     0.155970000000     0.154      
C        C      0.472600000000     0.303600000000     0.183090000000     0.154      
C        C      0.484266666667     0.286033333333     0.221600000000     0.154      
C        C      0.479633333333     0.258700000000     0.275560000000     0.154      
C        C      0.462166666667     0.238566666667     0.308290000000     0.154      
C        C      0.476466666667     0.181266666667     0.071900000000     0.154      
C        C      0.485633333333     0.207000000000     0.040570000000     0.154      
C        C      0.479166666667     0.249870000000     0.499180000000     0.154      
C        C      0.461233333333     0.280033333333     0.474350000000     0.154      
C        C      0.442200000000     0.309466666667     0.497385000000     0.154      
C        C      0.404333333333     0.002933333333     0.037280000000     0.154      
C        C      0.373000000000     0.010566666667     0.066785000000     0.154      
C        C      0.525200000000     0.279900000000     0.382210000000     0.154      
C        C      0.560733333333     0.253366666667     0.384305000000     0.154      
C        C      0.610066666667     0.218333333333     0.405970000000     0.154      
C        C      0.639266666667     0.196400000000     0.433090000000     0.154      
C        C      0.650933333333     0.213966666667     0.471600000000     0.154      
C        C      0.646300000000     0.241300000000     0.025560000000     0.154      
C        C      0.628833333333     0.261433333333     0.058290000000     0.154      
C        C      0.643133333333     0.318733333333     0.321900000000     0.154      
C        C      0.652300000000     0.293000000000     0.290570000000     0.154      
C        C      0.645833333333     0.250130000000     0.249180000000     0.154      
C        C      0.627900000000     0.219966666667     0.224350000000     0.154      
C        C      0.608866666667     0.190533333333     0.247385000000     0.154      
C        C      0.571000000000     0.163733333333     0.287280000000     0.154      
C        C      0.539666666667     0.156100000000     0.316785000000     0.154      
C        C      0.641466666667     0.113233333333     0.367790000000     0.154      
C        C      0.605933333333     0.086700000000     0.365695000000     0.154      
C        C      0.556600000000     0.051666666667     0.344030000000     0.154      
C        C      0.527400000000     0.029733333333     0.316910000000     0.154      
C        C      0.515733333333     0.047300000000     0.278400000000     0.154      
C        C      0.520366666667     0.074633333333     0.224440000000     0.154      
C        C      0.537833333333     0.094766666667     0.191710000000     0.154      
C        C      0.523533333333     0.152066666667     0.428100000000     0.154      
C        C      0.514366666667     0.126333333333     0.459430000000     0.154      
C        C      0.520833333333     0.083463333333     0.000820000000     0.154      
C        C      0.538766666667     0.053300000000     0.025650000000     0.154      
C        C      0.557800000000     0.023866666667     0.002615000000     0.154      
C        C      0.595666666667     0.330400000000     0.462720000000     0.154      
C        C      0.627000000000     0.322766666667     0.433215000000     0.154      
C        C      0.474800000000     0.053433333333     0.617790000000     0.154      
C        C      0.439266666667     0.079966666667     0.615695000000     0.154      
C        C      0.389933333333     0.115000000000     0.594030000000     0.154      
C        C      0.360733333333     0.136933333333     0.566910000000     0.154      
C        C      0.349066666667     0.119366666667     0.528400000000     0.154      
C        C      0.353700000000     0.092033333333     0.974440000000     0.154      
C        C      0.371166666667     0.071900000000     0.941710000000     0.154      
C        C      0.356866666667     0.014600000000     0.678100000000     0.154      
C        C      0.347700000000     0.040333333333     0.709430000000     0.154      
C        C      0.354166666667     0.083203333333     0.750820000000     0.154      
C        C      0.372100000000     0.113366666667     0.775650000000     0.154      
C        C      0.391133333333     0.142800000000     0.752615000000     0.154      
C        C      0.429000000000     0.169600000000     0.712720000000     0.154      
C        C      0.460333333333     0.177233333333     0.683215000000     0.154      
C        C      0.358533333333     0.220100000000     0.632210000000     0.154      
C        C      0.394066666667     0.246633333333     0.634305000000     0.154      
C        C      0.443400000000     0.281666666667     0.655970000000     0.154      
C        C      0.472600000000     0.303600000000     0.683090000000     0.154      
C        C      0.484266666667     0.286033333333     0.721600000000     0.154      
C        C      0.479633333333     0.258700000000     0.775560000000     0.154      
C        C      0.462166666667     0.238566666667     0.808290000000     0.154      
C        C      0.476466666667     0.181266666667     0.571900000000     0.154      
C        C      0.485633333333     0.207000000000     0.540570000000     0.154      
C        C      0.479166666667     0.249870000000     0.999180000000     0.154      
C        C      0.461233333333     0.280033333333     0.974350000000     0.154      
C        C      0.442200000000     0.309466666667     0.997385000000     0.154      
C        C      0.404333333333     0.002933333333     0.537280000000     0.154      
C        C      0.373000000000     0.010566666667     0.566785000000     0.154      
C        C      0.525200000000     0.279900000000     0.882210000000     0.154      
C        C      0.560733333333     0.253366666667     0.884305000000     0.154      
C        C      0.610066666667     0.218333333333     0.905970000000     0.154      
C        C      0.639266666667     0.196400000000     0.933090000000     0.154      
C        C      0.650933333333     0.213966666667     0.971600000000     0.154      
C        C      0.646300000000     0.241300000000     0.525560000000     0.154      
C        C      0.628833333333     0.261433333333     0.558290000000     0.154      
C        C      0.643133333333     0.318733333333     0.821900000000     0.154      
C        C      0.652300000000     0.293000000000     0.790570000000     0.154      
C        C      0.645833333333     0.250130000000     0.749180000000     0.154      
C        C      0.627900000000     0.219966666667     0.724350000000     0.154      
C        C      0.608866666667     0.190533333333     0.747385000000     0.154      
C        C      0.571000000000     0.163733333333     0.787280000000     0.154      
C        C      0.539666666667     0.156100000000     0.816785000000     0.154      
C        C      0.641466666667     0.113233333333     0.867790000000     0.154      
C        C      0.605933333333     0.086700000000     0.865695000000     0.154      
C        C      0.556600000000     0.051666666667     0.844030000000     0.154      
C        C      0.527400000000     0.029733333333     0.816910000000     0.154      
C        C      0.515733333333     0.047300000000     0.778400000000     0.154      
C        C      0.520366666667     0.074633333333     0.724440000000     0.154      
C        C      0.537833333333     0.094766666667     0.691710000000     0.154      
C        C      0.523533333333     0.152066666667     0.928100000000     0.154      
C        C      0.514366666667     0.126333333333     0.959430000000     0.154      
C        C      0.520833333333     0.083463333333     0.500820000000     0.154      
C        C      0.538766666667     0.053300000000     0.525650000000     0.154      
C        C      0.557800000000     0.023866666667     0.502615000000     0.154      
C        C      0.595666666667     0.330400000000     0.962720000000     0.154      
C        C      0.627000000000     0.322766666667     0.933215000000     0.154      
C        C      0.474800000000     0.386766666667     0.117790000000     0.154      
C        C      0.439266666667     0.413300000000     0.115695000000     0.154      
C        C      0.389933333333     0.448333333333     0.094030000000     0.154      
C        C      0.360733333333     0.470266666667     0.066910000000     0.154      
C        C      0.349066666667     0.452700000000     0.028400000000     0.154      
C        C      0.353700000000     0.425366666667     0.474440000000     0.154      
C        C      0.371166666667     0.405233333333     0.441710000000     0.154      
C        C      0.356866666667     0.347933333333     0.178100000000     0.154      
C        C      0.347700000000     0.373666666667     0.209430000000     0.154      
C        C      0.354166666667     0.416536666667     0.250820000000     0.154      
C        C      0.372100000000     0.446700000000     0.275650000000     0.154      
C        C      0.391133333333     0.476133333333     0.252615000000     0.154      
C        C      0.429000000000     0.502933333333     0.212720000000     0.154      
C        C      0.460333333333     0.510566666667     0.183215000000     0.154      
C        C      0.358533333333     0.553433333333     0.132210000000     0.154      
C        C      0.394066666667     0.579966666667     0.134305000000     0.154      
C        C      0.443400000000     0.615000000000     0.155970000000     0.154      
C        C      0.472600000000     0.636933333333     0.183090000000     0.154      
C        C      0.484266666667     0.619366666667     0.221600000000     0.154      
C        C      0.479633333333     0.592033333333     0.275560000000     0.154      
C        C      0.462166666667     0.571900000000     0.308290000000     0.154      
C        C      0.476466666667     0.514600000000     0.071900000000     0.154      
C        C      0.485633333333     0.540333333333     0.040570000000     0.154      
C        C      0.479166666667     0.583203333333     0.499180000000     0.154      
C        C      0.461233333333     0.613366666667     0.474350000000     0.154      
C        C      0.442200000000     0.642800000000     0.497385000000     0.154      
C        C      0.404333333333     0.336266666667     0.037280000000     0.154      
C        C      0.373000000000     0.343900000000     0.066785000000     0.154      
C        C      0.525200000000     0.613233333333     0.382210000000     0.154      
C        C      0.560733333333     0.586700000000     0.384305000000     0.154      
C        C      0.610066666667     0.551666666667     0.405970000000     0.154      
C        C      0.639266666667     0.529733333333     0.433090000000     0.154      
C        C      0.650933333333     0.547300000000     0.471600000000     0.154      
C        C      0.646300000000     0.574633333333     0.025560000000     0.154      
C        C      0.628833333333     0.594766666667     0.058290000000     0.154      
C        C      0.643133333333     0.652066666667     0.321900000000     0.154      
C        C      0.652300000000     0.626333333333     0.290570000000     0.154      
C        C      0.645833333333     0.583463333333     0.249180000000     0.154      
C        C      0.627900000000     0.553300000000     0.224350000000     0.154      
C        C      0.608866666667     0.523866666667     0.247385000000     0.154      
C        C      0.571000000000     0.497066666667     0.287280000000     0.154      
C        C      0.539666666667     0.489433333333     0.316785000000     0.154      
C        C      0.641466666667     0.446566666667     0.367790000000     0.154      
C        C      0.605933333333     0.420033333333     0.365695000000     0.154      
C        C      0.556600000000     0.385000000000     0.344030000000     0.154      
C        C      0.527400000000     0.363066666667     0.316910000000     0.154      
C        C      0.515733333333     0.380633333333     0.278400000000     0.154      
C        C      0.520366666667     0.407966666667     0.224440000000     0.154      
C        C      0.537833333333     0.428100000000     0.191710000000     0.154      
C        C      0.523533333333     0.485400000000     0.428100000000     0.154      
C        C      0.514366666667     0.459666666667     0.459430000000     0.154      
C        C      0.520833333333     0.416796666667     0.000820000000     0.154      
C        C      0.538766666667     0.386633333333     0.025650000000     0.154      
C        C      0.557800000000     0.357200000000     0.002615000000     0.154      
C        C      0.595666666667     0.663733333333     0.462720000000     0.154      
C        C      0.627000000000     0.656100000000     0.433215000000     0.154      
C        C      0.474800000000     0.386766666667     0.617790000000     0.154      
C        C      0.439266666667     0.413300000000     0.615695000000     0.154      
C        C      0.389933333333     0.448333333333     0.594030000000     0.154      
C        C      0.360733333333     0.470266666667     0.566910000000     0.154      
C        C      0.349066666667     0.452700000000     0.528400000000     0.154      
C        C      0.353700000000     0.425366666667     0.974440000000     0.154      
C        C      0.371166666667     0.405233333333     0.941710000000     0.154      
C        C      0.356866666667     0.347933333333     0.678100000000     0.154      
C        C      0.347700000000     0.373666666667     0.709430000000     0.154      
C        C      0.354166666667     0.416536666667     0.750820000000     0.154      
C        C      0.372100000000     0.446700000000     0.775650000000     0.154      
C        C      0.391133333333     0.476133333333     0.752615000000     0.154      
C        C      0.429000000000     0.502933333333     0.712720000000     0.154      
C        C      0.460333333333     0.510566666667     0.683215000000     0.154      
C        C      0.358533333333     0.553433333333     0.632210000000     0.154      
C        C      0.394066666667     0.579966666667     0.634305000000     0.154      
C        C      0.443400000000     0.615000000000     0.655970000000     0.154      
C        C      0.472600000000     0.636933333333     0.683090000000     0.154      
C        C      0.484266666667     0.619366666667     0.721600000000     0.154      
C        C      0.479633333333     0.592033333333     0.775560000000     0.154      
C        C      0.462166666667     0.571900000000     0.808290000000     0.154      
C        C      0.476466666667     0.514600000000     0.571900000000     0.154      
C        C      0.485633333333     0.540333333333     0.540570000000     0.154      
C        C      0.479166666667     0.583203333333     0.999180000000     0.154      
C        C      0.461233333333     0.613366666667     0.974350000000     0.154      
C        C      0.442200000000     0.642800000000     0.997385000000     0.154      
C        C      0.404333333333     0.336266666667     0.537280000000     0.154      
C        C      0.373000000000     0.343900000000     0.566785000000     0.154      
C        C      0.525200000000     0.613233333333     0.882210000000     0.154      
C        C      0.560733333333     0.586700000000     0.884305000000     0.154      
C        C      0.610066666667     0.551666666667     0.905970000000     0.154      
C        C      0.639266666667     0.529733333333     0.933090000000     0.154      
C        C      0.650933333333     0.547300000000     0.971600000000     0.154      
C        C      0.646300000000     0.574633333333     0.525560000000     0.154      
C        C      0.628833333333     0.594766666667     0.558290000000     0.154      
C        C      0.643133333333     0.652066666667     0.821900000000     0.154      
C        C      0.652300000000     0.626333333333     0.790570000000     0.154      
C        C      0.645833333333     0.583463333333     0.749180000000     0.154      
C        C      0.627900000000     0.553300000000     0.724350000000     0.154      
C        C      0.608866666667     0.523866666667     0.747385000000     0.154      
C        C      0.571000000000     0.497066666667     0.787280000000     0.154      
C        C      0.539666666667     0.489433333333     0.816785000000     0.154      
C        C      0.641466666667     0.446566666667     0.867790000000     0.154      
C        C      0.605933333333     0.420033333333     0.865695000000     0.154      
C        C      0.556600000000     0.385000000000     0.844030000000     0.154      
C        C      0.527400000000     0.363066666667     0.816910000000     0.154      
C        C      0.515733333333     0.380633333333     0.778400000000     0.154      
C        C      0.520366666667     0.407966666667     0.724440000000     0.154      
C        C      0.537833333333     0.428100000000     0.691710000000     0.154      
C        C      0.523533333333     0.485400000000     0.928100000000     0.154      
C        C      0.514366666667     0.459666666667     0.959430000000     0.154      
C        C      0.520833333333     0.416796666667     0.500820000000     0.154      
C        C      0.538766666667     0.386633333333     0.525650000000     0.154      
C        C      0.557800000000     0.357200000000     0.502615000000     0.154      
C        C      0.595666666667     0.663733333333     0.962720000000     0.154      
C        C      0.627000000000     0.656100000000     0.933215000000     0.154      
C        C      0.474800000000     0.720100000000     0.117790000000     0.154      
C        C      0.439266666667     0.746633333333     0.115695000000     0.154      
C        C      0.389933333333     0.781666666667     0.094030000000     0.154      
C        C      0.360733333333     0.803600000000     0.066910000000     0.154      
C        C      0.349066666667     0.786033333333     0.028400000000     0.154      
C        C      0.353700000000     0.758700000000     0.474440000000     0.154      
C        C      0.371166666667     0.738566666667     0.441710000000     0.154      
C        C      0.356866666667     0.681266666667     0.178100000000     0.154      
C        C      0.347700000000     0.707000000000     0.209430000000     0.154      
C        C      0.354166666667     0.749870000000     0.250820000000     0.154      
C        C      0.372100000000     0.780033333333     0.275650000000     0.154      
C        C      0.391133333333     0.809466666667     0.252615000000     0.154      
C        C      0.429000000000     0.836266666667     0.212720000000     0.154      
C        C      0.460333333333     0.843900000000     0.183215000000     0.154      
C        C      0.358533333333     0.886766666667     0.132210000000     0.154      
C        C      0.394066666667     0.913300000000     0.134305000000     0.154      
C        C      0.443400000000     0.948333333333     0.155970000000     0.154      
C        C      0.472600000000     0.970266666667     0.183090000000     0.154      
C        C      0.484266666667     0.952700000000     0.221600000000     0.154      
C        C      0.479633333333     0.925366666667     0.275560000000     0.154      
C        C      0.462166666667     0.905233333333     0.308290000000     0.154      
C        C      0.476466666667     0.847933333333     0.071900000000     0.154      
C        C      0.485633333333     0.873666666667     0.040570000000     0.154      
C        C      0.479166666667     0.916536666667     0.499180000000     0.154      
C        C      0.461233333333     0.946700000000     0.474350000000     0.154      
C        C      0.442200000000     0.976133333333     0.497385000000     0.154      
C        C      0.404333333333     0.669600000000     0.037280000000     0.154      
C        C      0.373000000000     0.677233333333     0.066785000000     0.154      
C        C      0.525200000000     0.946566666667     0.382210000000     0.154      
C        C      0.560733333333     0.920033333333     0.384305000000     0.154      
C        C      0.610066666667     0.885000000000     0.405970000000     0.154      
C        C      0.639266666667     0.863066666667     0.433090000000     0.154      
C        C      0.650933333333     0.880633333333     0.471600000000     0.154      
C        C      0.646300000000     0.907966666667     0.025560000000     0.154      
C        C      0.628833333333     0.928100000000     0.058290000000     0.154      
C        C      0.643133333333     0.985400000000     0.321900000000     0.154      
C        C      0.652300000000     0.959666666667     0.290570000000     0.154      
C        C      0.645833333333     0.916796666667     0.249180000000     0.154      
C        C      0.627900000000     0.886633333333     0.224350000000     0.154      
C        C      0.608866666667     0.857200000000     0.247385000000     0.154      
C        C      0.571000000000     0.830400000000     0.287280000000     0.154      
C        C      0.539666666667     0.822766666667     0.316785000000     0.154      
C        C      0.641466666667     0.779900000000     0.367790000000     0.154      
C        C      0.605933333333     0.753366666667     0.365695000000     0.154      
C        C      0.556600000000     0.718333333333     0.344030000000     0.154      
C        C      0.527400000000     0.696400000000     0.316910000000     0.154      
C        C      0.515733333333     0.713966666667     0.278400000000     0.154      
C        C      0.520366666667     0.741300000000     0.224440000000     0.154      
C        C      0.537833333333     0.761433333333     0.191710000000     0.154      
C        C      0.523533333333     0.818733333333     0.428100000000     0.154      
C        C      0.514366666667     0.793000000000     0.459430000000     0.154      
C        C      0.520833333333     0.750130000000     0.000820000000     0.154      
C        C      0.538766666667     0.719966666667     0.025650000000     0.154      
C        C      0.557800000000     0.690533333333     0.002615000000     0.154      
C        C      0.595666666667     0.997066666667     0.462720000000     0.154      
C        C      0.627000000000     0.989433333333     0.433215000000     0.154      
C        C      0.474800000000     0.720100000000     0.617790000000     0.154      
C        C      0.439266666667     0.746633333333     0.615695000000     0.154      
C        C      0.389933333333     0.781666666667     0.594030000000     0.154      
C        C      0.360733333333     0.803600000000     0.566910000000     0.154      
C        C      0.349066666667     0.786033333333     0.528400000000     0.154      
C        C      0.353700000000     0.758700000000     0.974440000000     0.154      
C        C      0.371166666667     0.738566666667     0.941710000000     0.154      
C        C      0.356866666667     0.681266666667     0.678100000000     0.154      
C        C      0.347700000000     0.707000000000     0.709430000000     0.154      
C        C      0.354166666667     0.749870000000     0.750820000000     0.154      
C        C      0.372100000000     0.780033333333     0.775650000000     0.154      
C        C      0.391133333333     0.809466666667     0.752615000000     0.154      
C        C      0.429000000000     0.836266666667     0.712720000000     0.154      
C        C      0.460333333333     0.843900000000     0.683215000000     0.154      
C        C      0.358533333333     0.886766666667     0.632210000000     0.154      
C        C      0.394066666667     0.913300000000     0.634305000000     0.154      
C        C      0.443400000000     0.948333333333     0.655970000000     0.154      
C        C      0.472600000000     0.970266666667     0.683090000000     0.154      
C        C      0.484266666667     0.952700000000     0.721600000000     0.154      
C        C      0.479633333333     0.925366666667     0.775560000000     0.154      
C        C      0.462166666667     0.905233333333     0.808290000000     0.154      
C        C      0.476466666667     0.847933333333     0.571900000000     0.154      
C        C      0.485633333333     0.873666666667     0.540570000000     0.154      
C        C      0.479166666667     0.916536666667     0.999180000000     0.154      
C        C      0.461233333333     0.946700000000     0.974350000000     0.154      
C        C      0.442200000000     0.976133333333     0.997385000000     0.154      
C        C      0.404333333333     0.669600000000     0.537280000000     0.154      
C        C      0.373000000000     0.677233333333     0.566785000000     0.154      
C        C      0.525200000000     0.946566666667     0.882210000000     0.154      
C        C      0.560733333333     0.920033333333     0.884305000000     0.154      
C        C      0.610066666667     0.885000000000     0.905970000000     0.154      
C        C      0.639266666667     0.863066666667     0.933090000000     0.154      
C        C      0.650933333333     0.880633333333     0.971600000000     0.154      
C        C      0.646300000000     0.907966666667     0.525560000000     0.154      
C        C      0.628833333333     0.928100000000     0.558290000000     0.154      
C        C      0.643133333333     0.985400000000     0.821900000000     0.154      
C        C      0.652300000000     0.959666666667     0.790570000000     0.154      
C        C      0.645833333333     0.916796666667     0.749180000000     0.154      
C        C      0.627900000000     0.886633333333     0.724350000000     0.154      
C        C      0.608866666667     0.857200000000     0.747385000000     0.154      
C        C      0.571000000000     0.830400000000     0.787280000000     0.154      
C        C      0.539666666667     0.822766666667     0.816785000000     0.154      
C        C      0.641466666667     0.779900000000     0.867790000000     0.154      
C        C      0.605933333333     0.753366666667     0.865695000000     0.154      
C        C      0.556600000000     0.718333333333     0.844030000000     0.154      
C        C      0.527400000000     0.696400000000     0.816910000000     0.154      
C        C      0.515733333333     0.713966666667     0.778400000000     0.154      
C        C      0.520366666667     0.741300000000     0.724440000000     0.154      
C        C      0.537833333333     0.761433333333     0.691710000000     0.154      
C        C      0.523533333333     0.818733333333     0.928100000000     0.154      
C        C      0.514366666667     0.793000000000     0.959430000000     0.154      
C        C      0.520833333333     0.750130000000     0.500820000000     0.154      
C        C      0.538766666667     0.719966666667     0.525650000000     0.154      
C        C      0.557800000000     0.690533333333     0.502615000000     0.154      
C        C      0.595666666667     0.997066666667     0.962720000000     0.154      
C        C      0.627000000000     0.989433333333     0.933215000000     0.154      
C        C      0.808133333333     0.053433333333     0.117790000000     0.154      
C        C      0.772600000000     0.079966666667     0.115695000000     0.154      
C        C      0.723266666667     0.115000000000     0.094030000000     0.154      
C        C      0.694066666667     0.136933333333     0.066910000000     0.154      
C        C      0.682400000000     0.119366666667     0.028400000000     0.154      
C        C      0.687033333333     0.092033333333     0.474440000000     0.154      
C        C      0.704500000000     0.071900000000     0.441710000000     0.154      
C        C      0.690200000000     0.014600000000     0.178100000000     0.154      
C        C      0.681033333333     0.040333333333     0.209430000000     0.154      
C        C      0.687500000000     0.083203333333     0.250820000000     0.154      
C        C      0.705433333333     0.113366666667     0.275650000000     0.154      
C        C      0.724466666667     0.142800000000     0.252615000000     0.154      
C        C      0.762333333333     0.169600000000     0.212720000000     0.154      
C        C      0.793666666667     0.177233333333     0.183215000000     0.154      
C        C      0.691866666667     0.220100000000     0.132210000000     0.154      
C        C      0.727400000000     0.246633333333     0.134305000000     0.154      
C        C      0.776733333333     0.281666666667     0.155970000000     0.154      
C        C      0.805933333333     0.303600000000     0.183090000000     0.154      
C        C      0.817600000000     0.286033333333     0.221600000000     0.154      
C        C      0.812966666667     0.258700000000     0.275560000000     0.154      
C        C      0.795500000000     0.238566666667     0.308290000000     0.154      
C        C      0.809800000000     0.181266666667     0.071900000000     0.154      
C        C      0.818966666667     0.207000000000     0.040570000000     0.154      
C        C      0.812500000000     0.249870000000     0.499180000000     0.154      
C        C      0.794566666667     0.280033333333     0.474350000000     0.154      
C        C      0.775533333333     0.309466666667     0.497385000000     0.154      
C        C      0.737666666667     0.002933333333     0.037280000000     0.154      
C        C      0.706333333333     0.010566666667     0.066785000000     0.154      
C        C      0.858533333333     0.279900000000     0.382210000000     0.154      
C        C      0.894066666667     0.253366666667     0.384305000000     0.154      
C        C      0.943400000000     0.218333333333     0.405970000000     0.154      
C        C      0.972600000000     0.196400000000     0.433090000000     0.154      
C        C      0.984266666667     0.213966666667     0.471600000000     0.154      
C        C      0.979633333333     0.241300000000     0.025560000000     0.154      
C        C      0.962166666667     0.261433333333     0.058290000000     0.154      
C        C      0.976466666667     0.318733333333     0.321900000000     0.154      
C        C      0.985633333333     0.293000000000     0.290570000000     0.154      
C        C      0.979166666667     0.250130000000     0.249180000000     0.154      
C        C      0.961233333333     0.219966666667     0.224350000000     0.154      
C        C      0.942200000000     0.190533333333     0.247385000000     0.154      
C        C      0.904333333333     0.163733333333     0.287280000000     0.154      
C        C      0.873000000000     0.156100000000     0.316785000000     0.154      
C        C      0.974800000000     0.113233333333     0.367790000000     0.154      
C        C      0.939266666667     0.086700000000     0.365695000000     0.154      
C        C      0.889933333333     0.051666666667     0.344030000000     0.154      
C        C      0.860733333333     0.029733333333     0.316910000000     0.154      
C        C      0.849066666667     0.047300000000     0.278400000000     0.154      
C        C      0.853700000000     0.074633333333     0.224440000000     0.154      
C        C      0.871166666667     0.094766666667     0.191710000000     0.154      
C        C      0.856866666667     0.152066666667     0.428100000000     0.154      
C        C      0.847700000000     0.126333333333     0.459430000000     0.154      
C        C      0.854166666667     0.083463333333     0.000820000000     0.154      
C        C      0.872100000000     0.053300000000     0.025650000000     0.154      
C        C      0.891133333333     0.023866666667     0.002615000000     0.154      
C        C      0.929000000000     0.330400000000     0.462720000000     0.154      
C        C      0.960333333333     0.322766666667     0.433215000000     0.154      
C        C      0.808133333333     0.053433333333     0.617790000000     0.154      
C        C      0.772600000000     0.079966666667     0.615695000000     0.154      
C        C      0.723266666667     0.115000000000     0.594030000000     0.154      
C        C      0.694066666667     0.136933333333     0.566910000000     0.154      
C        C      0.682400000000     0.119366666667     0.528400000000     0.154      
C        C      0.687033333333     0.092033333333     0.974440000000     0.154      
C        C      0.704500000000     0.071900000000     0.941710000000     0.154      
C        C      0.690200000000     0.014600000000     0.678100000000     0.154      
C        C      0.681033333333     0.040333333333     0.709430000000     0.154      
C        C      0.687500000000     0.083203333333     0.750820000000     0.154      
C        C      0.705433333333     0.113366666667     0.775650000000     0.154      
C        C      0.724466666667     0.142800000000     0.752615000000     0.154      
C        C      0.762333333333     0.169600000000     0.712720000000     0.154      
C        C      0.793666666667     0.177233333333     0.683215000000     0.154      
C        C      0.691866666667     0.220100000000     0.632210000000     0.154      
C        C      0.727400000000     0.246633333333     0.634305000000     0.154      
C        C      0.776733333333     0.281666666667     0.655970000000     0.154      
C        C      0.805933333333     0.303600000000     0.683090000000     0.154      
C        C      0.817600000000     0.286033333333     0.721600000000     0.154      
C        C      0.812966666667     0.258700000000     0.775560000000     0.154      
C        C      0.795500000000     0.238566666667     0.808290000000     0.154      
C        C      0.809800000000     0.181266666667     0.571900000000     0.154      
C        C      0.818966666667     0.207000000000     0.540570000000     0.154      
C        C      0.812500000000     0.249870000000     0.999180000000     0.154      
C        C      0.794566666667     0.280033333333     0.974350000000     0.154      
C        C      0.775533333333     0.309466666667     0.997385000000     0.154      
C        C      0.737666666667     0.002933333333     0.537280000000     0.154      
C        C      0.706333333333     0.010566666667     0.566785000000     0.154      
C        C      0.858533333333     0.279900000000     0.882210000000     0.154      
C        C      0.894066666667     0.253366666667     0.884305000000     0.154      
C        C      0.943400000000     0.218333333333     0.905970000000     0.154      
C        C      0.972600000000     0.196400000000     0.933090000000     0.154      
C        C      0.984266666667     0.213966666667     0.971600000000     0.154      
C        C      0.979633333333     0.241300000000     0.525560000000     0.154      
C        C      0.962166666667     0.261433333333     0.558290000000     0.154      
C        C      0.976466666667     0.318733333333     0.821900000000     0.154      
C        C      0.985633333333     0.293000000000     0.790570000000     0.154      
C        C      0.979166666667     0.250130000000     0.749180000000     0.154      
C        C      0.961233333333     0.219966666667     0.724350000000     0.154      
C        C      0.942200000000     0.190533333333     0.747385000000     0.154      
C        C      0.904333333333     0.163733333333     0.787280000000     0.154      
C        C      0.873000000000     0.156100000000     0.816785000000     0.154      
C        C      0.974800000000     0.113233333333     0.867790000000     0.154      
C        C      0.939266666667     0.086700000000     0.865695000000     0.154      
C        C      0.889933333333     0.051666666667     0.844030000000     0.154      
C        C      0.860733333333     0.029733333333     0.816910000000     0.154      
C        C      0.849066666667     0.047300000000     0.778400000000     0.154      
C        C      0.853700000000     0.074633333333     0.724440000000     0.154      
C        C      0.871166666667     0.094766666667     0.691710000000     0.154      
C        C      0.856866666667     0.152066666667     0.928100000000     0.154      
C        C      0.847700000000     0.126333333333     0.959430000000     0.154      
C        C      0.854166666667     0.083463333333     0.500820000000     0.154      
C        C      0.872100000000     0.053300000000     0.525650000000     0.154      
C        C      0.891133333333     0.023866666667     0.502615000000     0.154      
C        C      0.929000000000     0.330400000000     0.962720000000     0.154      
C        C      0.960333333333     0.322766666667     0.933215000000     0.154      
C        C      0.808133333333     0.386766666667     0.117790000000     0.154      
C        C      0.772600000000     0.413300000000     0.115695000000     0.154      
C        C      0.723266666667     0.448333333333     0.094030000000     0.154      
C        C      0.694066666667     0.470266666667     0.066910000000     0.154      
C        C      0.682400000000     0.452700000000     0.028400000000     0.154      
C        C      0.687033333333     0.425366666667     0.474440000000     0.154      
C        C      0.704500000000     0.405233333333     0.441710000000     0.154      
C        C      0.690200000000     0.347933333333     0.178100000000     0.154      
C        C      0.681033333333     0.373666666667     0.209430000000     0.154      
C        C      0.687500000000     0.416536666667     0.250820000000     0.154      
C        C      0.705433333333     0.446700000000     0.275650000000     0.154      
C        C      0.724466666667     0.476133333333     0.252615000000     0.154      
C        C      0.762333333333     0.502933333333     0.212720000000     0.154      
C        C      0.793666666667     0.510566666667     0.183215000000     0.154      
C        C      0.691866666667     0.553433333333     0.132210000000     0.154      
C        C      0.727400000000     0.579966666667     0.134305000000     0.154      
C        C      0.776733333333     0.615000000000     0.155970000000     0.154      
C        C      0.805933333333     0.636933333333     0.183090000000     0.154      
C        C      0.817600000000     0.619366666667     0.221600000000     0.154      
C        C      0.812966666667     0.592033333333     0.275560000000     0.154      
C        C      0.795500000000     0.571900000000     0.308290000000     0.154      
C        C      0.809800000000     0.514600000000     0.071900000000     0.154      
C        C      0.818966666667     0.540333333333     0.040570000000     0.154      
C        C      0.812500000000     0.583203333333     0.499180000000     0.154      
C        C      0.794566666667     0.613366666667     0.474350000000     0.154      
C        C      0.775533333333     0.642800000000     0.497385000000     0.154      
C        C      0.737666666667     0.336266666667     0.037280000000     0.154      
C        C      0.706333333333     0.343900000000     0.066785000000     0.154      
C        C      0.858533333333     0.613233333333     0.382210000000     0.154      
C        C      0.894066666667     0.586700000000     0.384305000000     0.154      
C        C      0.943400000000     0.551666666667     0.405970000000     0.154      
C        C      0.972600000000     0.529733333333     0.433090000000     0.154      
C        C      0.984266666667     0.547300000000     0.471600000000     0.154      
C        C      0.979633333333     0.574633333333     0.025560000000     0.154      
C        C      0.962166666667     0.594766666667     0.058290000000     0.154      
C        C      0.976466666667     0.652066666667     0.321900000000     0.154      
C        C      0.985633333333     0.626333333333     0.290570000000     0.154      
C        C      0.979166666667     0.583463333333     0.249180000000     0.154      
C        C      0.961233333333     0.553300000000     0.224350000000     0.154      
C        C      0.942200000000     0.523866666667     0.247385000000     0.154      
C        C      0.904333333333     0.497066666667     0.287280000000     0.154      
C        C      0.873000000000     0.489433333333     0.316785000000     0.154      
C        C      0.974800000000     0.446566666667     0.367790000000     0.154      
C        C      0.939266666667     0.420033333333     0.365695000000     0.154      
C        C      0.889933333333     0.385000000000     0.344030000000     0.154      
C        C      0.860733333333     0.363066666667     0.316910000000     0.154      
C        C      0.849066666667     0.380633333333     0.278400000000     0.154      
C        C      0.853700000000     0.407966666667     0.224440000000     0.154      
C        C      0.871166666667     0.428100000000     0.191710000000     0.154      
C        C      0.856866666667     0.485400000000     0.428100000000     0.154      
C        C      0.847700000000     0.459666666667     0.459430000000     0.154      
C        C      0.854166666667     0.416796666667     0.000820000000     0.154      
C        C      0.872100000000     0.386633333333     0.025650000000     0.154      
C        C      0.891133333333     0.357200000000     0.002615000000     0.154      
C        C      0.929000000000     0.663733333333     0.462720000000     0.154      
C        C      0.960333333333     0.656100000000     0.433215000000     0.154      
C        C      0.808133333333     0.386766666667     0.617790000000     0.154      
C        C      0.772600000000     0.413300000000     0.615695000000     0.154      
C        C      0.723266666667     0.448333333333     0.594030000000     0.154      
C        C      0.694066666667     0.470266666667     0.566910000000     0.154      
C        C      0.682400000000     0.452700000000     0.528400000000     0.154      
C        C      0.687033333333     0.425366666667     0.974440000000     0.154      
C        C      0.704500000000     0.405233333333     0.941710000000     0.154      
C        C      0.690200000000     0.347933333333     0.678100000000     0.154      
C        C      0.681033333333     0.373666666667     0.709430000000     0.154      
C        C      0.687500000000     0.416536666667     0.750820000000     0.154      
C        C      0.705433333333     0.446700000000     0.775650000000     0.154      
C        C      0.724466666667     0.476133333333     0.752615000000     0.154      
C        C      0.762333333333     0.502933333333     0.712720000000     0.154      
C        C      0.793666666667     0.510566666667     0.683215000000     0.154      
C        C      0.691866666667     0.553433333333     0.632210000000     0.154      
C        C      0.727400000000     0.579966666667     0.634305000000     0.154      
C        C      0.776733333333     0.615000000000     0.655970000000     0.154      
C        C      0.805933333333     0.636933333333     0.683090000000     0.154      
C        C      0.817600000000     0.619366666667     0.721600000000     0.154      
C        C      0.812966666667     0.592033333333     0.775560000000     0.154      
C        C      0.795500000000     0.571900000000     0.808290000000     0.154      
C        C      0.809800000000     0.514600000000     0.571900000000     0.154      
C        C      0.818966666667     0.540333333333     0.540570000000     0.154      
C        C      0.812500000000     0.583203333333     0.999180000000     0.154      
C        C      0.794566666667     0.613366666667     0.974350000000     0.154      
C        C      0.775533333333     0.642800000000     0.997385000000     0.154      
C        C      0.737666666667     0.336266666667     0.537280000000     0.154      
C        C      0.706333333333     0.343900000000     0.566785000000     0.154      
C        C      0.858533333333     0.613233333333     0.882210000000     0.154      
C        C      0.894066666667     0.586700000000     0.884305000000     0.154      
C        C      0.943400000000     0.551666666667     0.905970000000     0.154      
C        C      0.972600000000     0.529733333333     0.933090000000     0.154      
C        C      0.984266666667     0.547300000000     0.971600000000     0.154      
C        C      0.979633333333     0.574633333333     0.525560000000     0.154      
C        C      0.962166666667     0.594766666667     0.558290000000     0.154      
C        C      0.976466666667     0.652066666667     0.821900000000     0.154      
C        C      0.985633333333     0.626333333333     0.790570000000     0.154      
C        C      0.979166666667     0.583463333333     0.749180000000     0.154      
C        C      0.961233333333     0.553300000000     0.724350000000     0.154      
C        C      0.942200000000     0.523866666667     0.747385000000     0.154      
C        C      0.904333333333     0.497066666667     0.787280000000     0.154      
C        C      0.873000000000     0.489433333333     0.816785000000     0.154      
C        C      0.974800000000     0.446566666667     0.867790000000     0.154      
C        C      0.939266666667     0.420033333333     0.865695000000     0.154      
C        C      0.889933333333     0.385000000000     0.844030000000     0.154      
C        C      0.860733333333     0.363066666667     0.816910000000     0.154      
C        C      0.849066666667     0.380633333333     0.778400000000     0.154      
C        C      0.853700000000     0.407966666667     0.724440000000     0.154      
C        C      0.871166666667     0.428100000000     0.691710000000     0.154      
C        C      0.856866666667     0.485400000000     0.928100000000     0.154      
C        C      0.847700000000     0.459666666667     0.959430000000     0.154      
C        C      0.854166666667     0.416796666667     0.500820000000     0.154      
C        C      0.872100000000     0.386633333333     0.525650000000     0.154      
C        C      0.891133333333     0.357200000000     0.502615000000     0.154      
C        C      0.929000000000     0.663733333333     0.962720000000     0.154      
C        C      0.960333333333     0.656100000000     0.933215000000     0.154      
C        C      0.808133333333     0.720100000000     0.117790000000     0.154      
C        C      0.772600000000     0.746633333333     0.115695000000     0.154      
C        C      0.723266666667     0.781666666667     0.094030000000     0.154      
C        C      0.694066666667     0.803600000000     0.066910000000     0.154      
C        C      0.682400000000     0.786033333333     0.028400000000     0.154      
C        C      0.687033333333     0.758700000000     0.474440000000     0.154      
C        C      0.704500000000     0.738566666667     0.441710000000     0.154      
C        C      0.690200000000     0.681266666667     0.178100000000     0.154      
C        C      0.681033333333     0.707000000000     0.209430000000     0.154      
C        C      0.687500000000     0.749870000000     0.250820000000     0.154      
C        C      0.705433333333     0.780033333333     0.275650000000     0.154      
C        C      0.724466666667     0.809466666667     0.252615000000     0.154      
C        C      0.762333333333     0.836266666667     0.212720000000     0.154      
C        C      0.793666666667     0.843900000000     0.183215000000     0.154      
C        C      0.691866666667     0.886766666667     0.132210000000     0.154      
C        C      0.727400000000     0.913300000000     0.134305000000     0.154      
C        C      0.776733333333     0.948333333333     0.155970000000     0.154      
C        C      0.805933333333     0.970266666667     0.183090000000     0.154      
C        C      0.817600000000     0.952700000000     0.221600000000     0.154      
C        C      0.812966666667     0.925366666667     0.275560000000     0.154      
C        C      0.795500000000     0.905233333333     0.308290000000     0.154      
C        C      0.809800000000     0.847933333333     0.071900000000     0.154      
C        C      0.818966666667     0.873666666667     0.040570000000     0.154      
C        C      0.812500000000     0.916536666667     0.499180000000     0.154      
C        C      0.794566666667     0.946700000000     0.474350000000     0.154      
C        C      0.775533333333     0.976133333333     0.497385000000     0.154      
C        C      0.737666666667     0.669600000000     0.037280000000     0.154      
C        C      0.706333333333     0.677233333333     0.066785000000     0.154      
C        C      0.858533333333     0.946566666667     0.382210000000     0.154      
C        C      0.894066666667     0.920033333333     0.384305000000     0.154      
C        C      0.943400000000     0.885000000000     0.405970000000     0.154      
C        C      0.972600000000     0.863066666667     0.433090000000     0.154      
C        C      0.984266666667     0.880633333333     0.471600000000     0.154      
C        C      0.979633333333     0.907966666667     0.025560000000     0.154      
C        C      0.962166666667     0.928100000000     0.058290000000     0.154      
C        C      0.976466666667     0.985400000000     0.321900000000     0.154      
C        C      0.985633333333     0.959666666667     0.290570000000     0.154      
C        C      0.979166666667     0.916796666667     0.249180000000     0.154      
C        C      0.961233333333     0.886633333333     0.224350000000     0.154      
C        C      0.942200000000     0.857200000000     0.247385000000     0.154      
C        C      0.904333333333     0.830400000000     0.287280000000     0.154      
C        C      0.873000000000     0.822766666667     0.316785000000     0.154      
C        C      0.974800000000     0.779900000000     0.367790000000     0.154      
C        C      0.939266666667     0.753366666667     0.365695000000     0.154      
C        C      0.889933333333     0.718333333333     0.344030000000     0.154      
C        C      0.860733333333     0.696400000000     0.316910000000     0.154      
C        C      0.849066666667     0.713966666667     0.278400000000     0.154      
C        C      0.853700000000     0.741300000000     0.224440000000     0.154      
C        C      0.871166666667     0.761433333333     0.191710000000     0.154      
C        C      0.856866666667     0.818733333333     0.428100000000     0.154      
C        C      0.847700000000     0.793000000000     0.459430000000     0.154      
C        C      0.854166666667     0.750130000000     0.000820000000     0.154      
C        C      0.872100000000     0.719966666667     0.025650000000     0.154      
C        C      0.891133333333     0.690533333333     0.002615000000     0.154      
C        C      0.929000000000     0.997066666667     0.462720000000     0.154      
C        C      0.960333333333     0.989433333333     0.433215000000     0.154      
C        C      0.808133333333     0.720100000000     0.617790000000     0.154      
C        C      0.772600000000     0.746633333333     0.615695000000     0.154      
C        C      0.723266666667     0.781666666667     0.594030000000     0.154      
C        C      0.694066666667     0.803600000000     0.566910000000     0.154      
C        C      0.682400000000     0.786033333333     0.528400000000     0.154      
C        C      0.687033333333     0.758700000000     0.974440000000     0.154      
C        C      0.704500000000     0.738566666667     0.941710000000     0.154      
C        C      0.690200000000     0.681266666667     0.678100000000     0.154      
C        C      0.681033333333     0.707000000000     0.709430000000     0.154      
C        C      0.687500000000     0.749870000000     0.750820000000     0.154      
C        C      0.705433333333     0.780033333333     0.775650000000     0.154      
C        C      0.724466666667     0.809466666667     0.752615000000     0.154      
C        C      0.762333333333     0.836266666667     0.712720000000     0.154      
C        C      0.793666666667     0.843900000000     0.683215000000     0.154      
C        C      0.691866666667     0.886766666667     0.632210000000     0.154      
C        C      0.727400000000     0.913300000000     0.634305000000     0.154      
C        C      0.776733333333     0.948333333333     0.655970000000     0.154      
C        C      0.805933333333     0.970266666667     0.683090000000     0.154      
C        C      0.817600000000     0.952700000000     0.721600000000     0.154      
C        C      0.812966666667     0.925366666667     0.775560000000     0.154      
C        C      0.795500000000     0.905233333333     0.808290000000     0.154      
C        C      0.809800000000     0.847933333333     0.571900000000     0.154      
C        C      0.818966666667     0.873666666667     0.540570000000     0.154      
C        C      0.812500000000     0.916536666667     0.999180000000     0.154      
C        C      0.794566666667     0.946700000000     0.974350000000     0.154      
C        C      0.775533333333     0.976133333333     0.997385000000     0.154      
C        C      0.737666666667     0.669600000000     0.537280000000     0.154      
C        C      0.706333333333     0.677233333333     0.566785000000     0.154      
C        C      0.858533333333     0.946566666667     0.882210000000     0.154      
C        C      0.894066666667     0.920033333333     0.884305000000     0.154      
C        C      0.943400000000     0.885000000000     0.905970000000     0.154      
C        C      0.972600000000     0.863066666667     0.933090000000     0.154      
C        C      0.984266666667     0.880633333333     0.971600000000     0.154      
C        C      0.979633333333     0.907966666667     0.525560000000     0.154      
C        C      0.962166666667     0.928100000000     0.558290000000     0.154      
C        C      0.976466666667     0.985400000000     0.821900000000     0.154      
C        C      0.985633333333     0.959666666667     0.790570000000     0.154      
C        C      0.979166666667     0.916796666667     0.749180000000     0.154      
C        C      0.961233333333     0.886633333333     0.724350000000     0.154      
C        C      0.942200000000     0.857200000000     0.747385000000     0.154      
C        C      0.904333333333     0.830400000000     0.787280000000     0.154      
C        C      0.873000000000     0.822766666667     0.816785000000     0.154      
C        C      0.974800000000     0.779900000000     0.867790000000     0.154      
C        C      0.939266666667     0.753366666667     0.865695000000     0.154      
C        C      0.889933333333     0.718333333333     0.844030000000     0.154      
C        C      0.860733333333     0.696400000000     0.816910000000     0.154      
C        C      0.849066666667     0.713966666667     0.778400000000     0.154      
C        C      0.853700000000     0.741300000000     0.724440000000     0.154      
C        C      0.871166666667     0.761433333333     0.691710000000     0.154      
C        C      0.856866666667     0.818733333333     0.928100000000     0.154      
C        C      0.847700000000     0.793000000000     0.959430000000     0.154      
C        C      0.854166666667     0.750130000000     0.500820000000     0.154      
C        C      0.872100000000     0.719966666667     0.525650000000     0.154      
C        C      0.891133333333     0.690533333333     0.502615000000     0.154      
C        C      0.929000000000     0.997066666667     0.962720000000     0.154      
C        C      0.960333333333     0.989433333333     0.933215000000     0.154      
Zn       Zn     0.094336666667     0.086520000000     0.203375000000     0.161      
Zn       Zn     0.098160000000     0.081333333333     0.027190000000     0.161      
Zn       Zn     0.072330000000     0.253186666667     0.046625000000     0.161      
Zn       Zn     0.068506666667     0.248000000000     0.222810000000     0.161      
Zn       Zn     0.238996666667     0.246813333333     0.296625000000     0.161      
Zn       Zn     0.235173333333     0.252000000000     0.472810000000     0.161      
Zn       Zn     0.261003333333     0.080146666667     0.453375000000     0.161      
Zn       Zn     0.264826666667     0.085333333333     0.277190000000     0.161      
Zn       Zn     0.094336666667     0.086520000000     0.703375000000     0.161      
Zn       Zn     0.098160000000     0.081333333333     0.527190000000     0.161      
Zn       Zn     0.072330000000     0.253186666667     0.546625000000     0.161      
Zn       Zn     0.068506666667     0.248000000000     0.722810000000     0.161      
Zn       Zn     0.238996666667     0.246813333333     0.796625000000     0.161      
Zn       Zn     0.235173333333     0.252000000000     0.972810000000     0.161      
Zn       Zn     0.261003333333     0.080146666667     0.953375000000     0.161      
Zn       Zn     0.264826666667     0.085333333333     0.777190000000     0.161      
Zn       Zn     0.094336666667     0.419853333333     0.203375000000     0.161      
Zn       Zn     0.098160000000     0.414666666667     0.027190000000     0.161      
Zn       Zn     0.072330000000     0.586520000000     0.046625000000     0.161      
Zn       Zn     0.068506666667     0.581333333333     0.222810000000     0.161      
Zn       Zn     0.238996666667     0.580146666667     0.296625000000     0.161      
Zn       Zn     0.235173333333     0.585333333333     0.472810000000     0.161      
Zn       Zn     0.261003333333     0.413480000000     0.453375000000     0.161      
Zn       Zn     0.264826666667     0.418666666667     0.277190000000     0.161      
Zn       Zn     0.094336666667     0.419853333333     0.703375000000     0.161      
Zn       Zn     0.098160000000     0.414666666667     0.527190000000     0.161      
Zn       Zn     0.072330000000     0.586520000000     0.546625000000     0.161      
Zn       Zn     0.068506666667     0.581333333333     0.722810000000     0.161      
Zn       Zn     0.238996666667     0.580146666667     0.796625000000     0.161      
Zn       Zn     0.235173333333     0.585333333333     0.972810000000     0.161      
Zn       Zn     0.261003333333     0.413480000000     0.953375000000     0.161      
Zn       Zn     0.264826666667     0.418666666667     0.777190000000     0.161      
Zn       Zn     0.094336666667     0.753186666667     0.203375000000     0.161      
Zn       Zn     0.098160000000     0.748000000000     0.027190000000     0.161      
Zn       Zn     0.072330000000     0.919853333333     0.046625000000     0.161      
Zn       Zn     0.068506666667     0.914666666667     0.222810000000     0.161      
Zn       Zn     0.238996666667     0.913480000000     0.296625000000     0.161      
Zn       Zn     0.235173333333     0.918666666667     0.472810000000     0.161      
Zn       Zn     0.261003333333     0.746813333333     0.453375000000     0.161      
Zn       Zn     0.264826666667     0.752000000000     0.277190000000     0.161      
Zn       Zn     0.094336666667     0.753186666667     0.703375000000     0.161      
Zn       Zn     0.098160000000     0.748000000000     0.527190000000     0.161      
Zn       Zn     0.072330000000     0.919853333333     0.546625000000     0.161      
Zn       Zn     0.068506666667     0.914666666667     0.722810000000     0.161      
Zn       Zn     0.238996666667     0.913480000000     0.796625000000     0.161      
Zn       Zn     0.235173333333     0.918666666667     0.972810000000     0.161      
Zn       Zn     0.261003333333     0.746813333333     0.953375000000     0.161      
Zn       Zn     0.264826666667     0.752000000000     0.777190000000     0.161      
Zn       Zn     0.427670000000     0.086520000000     0.203375000000     0.161      
Zn       Zn     0.431493333333     0.081333333333     0.027190000000     0.161      
Zn       Zn     0.405663333333     0.253186666667     0.046625000000     0.161      
Zn       Zn     0.401840000000     0.248000000000     0.222810000000     0.161      
Zn       Zn     0.572330000000     0.246813333333     0.296625000000     0.161      
Zn       Zn     0.568506666667     0.252000000000     0.472810000000     0.161      
Zn       Zn     0.594336666667     0.080146666667     0.453375000000     0.161      
Zn       Zn     0.598160000000     0.085333333333     0.277190000000     0.161      
Zn       Zn     0.427670000000     0.086520000000     0.703375000000     0.161      
Zn       Zn     0.431493333333     0.081333333333     0.527190000000     0.161      
Zn       Zn     0.405663333333     0.253186666667     0.546625000000     0.161      
Zn       Zn     0.401840000000     0.248000000000     0.722810000000     0.161      
Zn       Zn     0.572330000000     0.246813333333     0.796625000000     0.161      
Zn       Zn     0.568506666667     0.252000000000     0.972810000000     0.161      
Zn       Zn     0.594336666667     0.080146666667     0.953375000000     0.161      
Zn       Zn     0.598160000000     0.085333333333     0.777190000000     0.161      
Zn       Zn     0.427670000000     0.419853333333     0.203375000000     0.161      
Zn       Zn     0.431493333333     0.414666666667     0.027190000000     0.161      
Zn       Zn     0.405663333333     0.586520000000     0.046625000000     0.161      
Zn       Zn     0.401840000000     0.581333333333     0.222810000000     0.161      
Zn       Zn     0.572330000000     0.580146666667     0.296625000000     0.161      
Zn       Zn     0.568506666667     0.585333333333     0.472810000000     0.161      
Zn       Zn     0.594336666667     0.413480000000     0.453375000000     0.161      
Zn       Zn     0.598160000000     0.418666666667     0.277190000000     0.161      
Zn       Zn     0.427670000000     0.419853333333     0.703375000000     0.161      
Zn       Zn     0.431493333333     0.414666666667     0.527190000000     0.161      
Zn       Zn     0.405663333333     0.586520000000     0.546625000000     0.161      
Zn       Zn     0.401840000000     0.581333333333     0.722810000000     0.161      
Zn       Zn     0.572330000000     0.580146666667     0.796625000000     0.161      
Zn       Zn     0.568506666667     0.585333333333     0.972810000000     0.161      
Zn       Zn     0.594336666667     0.413480000000     0.953375000000     0.161      
Zn       Zn     0.598160000000     0.418666666667     0.777190000000     0.161      
Zn       Zn     0.427670000000     0.753186666667     0.203375000000     0.161      
Zn       Zn     0.431493333333     0.748000000000     0.027190000000     0.161      
Zn       Zn     0.405663333333     0.919853333333     0.046625000000     0.161      
Zn       Zn     0.401840000000     0.914666666667     0.222810000000     0.161      
Zn       Zn     0.572330000000     0.913480000000     0.296625000000     0.161      
Zn       Zn     0.568506666667     0.918666666667     0.472810000000     0.161      
Zn       Zn     0.594336666667     0.746813333333     0.453375000000     0.161      
Zn       Zn     0.598160000000     0.752000000000     0.277190000000     0.161      
Zn       Zn     0.427670000000     0.753186666667     0.703375000000     0.161      
Zn       Zn     0.431493333333     0.748000000000     0.527190000000     0.161      
Zn       Zn     0.405663333333     0.919853333333     0.546625000000     0.161      
Zn       Zn     0.401840000000     0.914666666667     0.722810000000     0.161      
Zn       Zn     0.572330000000     0.913480000000     0.796625000000     0.161      
Zn       Zn     0.568506666667     0.918666666667     0.972810000000     0.161      
Zn       Zn     0.594336666667     0.746813333333     0.953375000000     0.161      
Zn       Zn     0.598160000000     0.752000000000     0.777190000000     0.161      
Zn       Zn     0.761003333333     0.086520000000     0.203375000000     0.161      
Zn       Zn     0.764826666667     0.081333333333     0.027190000000     0.161      
Zn       Zn     0.738996666667     0.253186666667     0.046625000000     0.161      
Zn       Zn     0.735173333333     0.248000000000     0.222810000000     0.161      
Zn       Zn     0.905663333333     0.246813333333     0.296625000000     0.161      
Zn       Zn     0.901840000000     0.252000000000     0.472810000000     0.161      
Zn       Zn     0.927670000000     0.080146666667     0.453375000000     0.161      
Zn       Zn     0.931493333333     0.085333333333     0.277190000000     0.161      
Zn       Zn     0.761003333333     0.086520000000     0.703375000000     0.161      
Zn       Zn     0.764826666667     0.081333333333     0.527190000000     0.161      
Zn       Zn     0.738996666667     0.253186666667     0.546625000000     0.161      
Zn       Zn     0.735173333333     0.248000000000     0.722810000000     0.161      
Zn       Zn     0.905663333333     0.246813333333     0.796625000000     0.161      
Zn       Zn     0.901840000000     0.252000000000     0.972810000000     0.161      
Zn       Zn     0.927670000000     0.080146666667     0.953375000000     0.161      
Zn       Zn     0.931493333333     0.085333333333     0.777190000000     0.161      
Zn       Zn     0.761003333333     0.419853333333     0.203375000000     0.161      
Zn       Zn     0.764826666667     0.414666666667     0.027190000000     0.161      
Zn       Zn     0.738996666667     0.586520000000     0.046625000000     0.161      
Zn       Zn     0.735173333333     0.581333333333     0.222810000000     0.161      
Zn       Zn     0.905663333333     0.580146666667     0.296625000000     0.161      
Zn       Zn     0.901840000000     0.585333333333     0.472810000000     0.161      
Zn       Zn     0.927670000000     0.413480000000     0.453375000000     0.161      
Zn       Zn     0.931493333333     0.418666666667     0.277190000000     0.161      
Zn       Zn     0.761003333333     0.419853333333     0.703375000000     0.161      
Zn       Zn     0.764826666667     0.414666666667     0.527190000000     0.161      
Zn       Zn     0.738996666667     0.586520000000     0.546625000000     0.161      
Zn       Zn     0.735173333333     0.581333333333     0.722810000000     0.161      
Zn       Zn     0.905663333333     0.580146666667     0.796625000000     0.161      
Zn       Zn     0.901840000000     0.585333333333     0.972810000000     0.161      
Zn       Zn     0.927670000000     0.413480000000     0.953375000000     0.161      
Zn       Zn     0.931493333333     0.418666666667     0.777190000000     0.161      
Zn       Zn     0.761003333333     0.753186666667     0.203375000000     0.161      
Zn       Zn     0.764826666667     0.748000000000     0.027190000000     0.161      
Zn       Zn     0.738996666667     0.919853333333     0.046625000000     0.161      
Zn       Zn     0.735173333333     0.914666666667     0.222810000000     0.161      
Zn       Zn     0.905663333333     0.913480000000     0.296625000000     0.161      
Zn       Zn     0.901840000000     0.918666666667     0.472810000000     0.161      
Zn       Zn     0.927670000000     0.746813333333     0.453375000000     0.161      
Zn       Zn     0.931493333333     0.752000000000     0.277190000000     0.161      
Zn       Zn     0.761003333333     0.753186666667     0.703375000000     0.161      
Zn       Zn     0.764826666667     0.748000000000     0.527190000000     0.161      
Zn       Zn     0.738996666667     0.919853333333     0.546625000000     0.161      
Zn       Zn     0.735173333333     0.914666666667     0.722810000000     0.161      
Zn       Zn     0.905663333333     0.913480000000     0.796625000000     0.161      
Zn       Zn     0.901840000000     0.918666666667     0.972810000000     0.161      
Zn       Zn     0.927670000000     0.746813333333     0.953375000000     0.161      
Zn       Zn     0.931493333333     0.752000000000     0.777190000000     0.161      
H        H      0.147866666667     0.046233333333     0.144900000000     0.147      
H        H      0.166500000000     0.064566666667     0.107600000000     0.147      
H        H      0.133366666667     0.032033333333     0.102250000000     0.147      
H        H      0.001166666667     0.141933333333     0.080050000000     0.147      
H        H      0.041033333333     0.160433333333     0.062150000000     0.147      
H        H      0.014666666667     0.064233333333     0.423400000000     0.147      
H        H      0.053233333333     0.050600000000     0.451850000000     0.147      
H        H      0.057066666667     0.087633333333     0.428350000000     0.147      
H        H      0.003466666667     0.327800000000     0.177950000000     0.147      
H        H      0.020900000000     0.027033333333     0.152950000000     0.147      
H        H      0.052333333333     0.005300000000     0.182650000000     0.147      
H        H      0.016066666667     0.123766666667     0.290600000000     0.147      
H        H      0.060666666667     0.103500000000     0.294500000000     0.147      
H        H      0.129633333333     0.203400000000     0.179850000000     0.147      
H        H      0.154500000000     0.167133333333     0.192100000000     0.147      
H        H      0.117433333333     0.166133333333     0.158350000000     0.147      
H        H      0.018800000000     0.212900000000     0.105100000000     0.147      
H        H      0.000166666667     0.231233333333     0.142400000000     0.147      
H        H      0.033300000000     0.198700000000     0.147750000000     0.147      
H        H      0.165500000000     0.308600000000     0.169950000000     0.147      
H        H      0.125633333333     0.327100000000     0.187850000000     0.147      
H        H      0.152000000000     0.230900000000     0.326600000000     0.147      
H        H      0.113433333333     0.217266666667     0.298150000000     0.147      
H        H      0.109600000000     0.254300000000     0.321650000000     0.147      
H        H      0.163200000000     0.161133333333     0.072050000000     0.147      
H        H      0.145766666667     0.193700000000     0.097050000000     0.147      
H        H      0.114333333333     0.171966666667     0.067350000000     0.147      
H        H      0.150600000000     0.290433333333     0.459400000000     0.147      
H        H      0.106000000000     0.270166666667     0.455500000000     0.147      
H        H      0.037033333333     0.036733333333     0.070150000000     0.147      
H        H      0.012166666667     0.000466666667     0.057900000000     0.147      
H        H      0.049233333333     0.332800000000     0.091650000000     0.147      
H        H      0.185466666667     0.287100000000     0.355100000000     0.147      
H        H      0.166833333333     0.268766666667     0.392400000000     0.147      
H        H      0.199966666667     0.301300000000     0.397750000000     0.147      
H        H      0.332166666667     0.191400000000     0.419950000000     0.147      
H        H      0.292300000000     0.172900000000     0.437850000000     0.147      
H        H      0.318666666667     0.269100000000     0.076600000000     0.147      
H        H      0.280100000000     0.282733333333     0.048150000000     0.147      
H        H      0.276266666667     0.245700000000     0.071650000000     0.147      
H        H      0.329866666667     0.005533333333     0.322050000000     0.147      
H        H      0.312433333333     0.306300000000     0.347050000000     0.147      
H        H      0.281000000000     0.328033333333     0.317350000000     0.147      
H        H      0.317266666667     0.209566666667     0.209400000000     0.147      
H        H      0.272666666667     0.229833333333     0.205500000000     0.147      
H        H      0.203700000000     0.129933333333     0.320150000000     0.147      
H        H      0.178833333333     0.166200000000     0.307900000000     0.147      
H        H      0.215900000000     0.167200000000     0.341650000000     0.147      
H        H      0.314533333333     0.120433333333     0.394900000000     0.147      
H        H      0.333166666667     0.102100000000     0.357600000000     0.147      
H        H      0.300033333333     0.134633333333     0.352250000000     0.147      
H        H      0.167833333333     0.024733333333     0.330050000000     0.147      
H        H      0.207700000000     0.006233333333     0.312150000000     0.147      
H        H      0.181333333333     0.102433333333     0.173400000000     0.147      
H        H      0.219900000000     0.116066666667     0.201850000000     0.147      
H        H      0.223733333333     0.079033333333     0.178350000000     0.147      
H        H      0.170133333333     0.172200000000     0.427950000000     0.147      
H        H      0.187566666667     0.139633333333     0.402950000000     0.147      
H        H      0.219000000000     0.161366666667     0.432650000000     0.147      
H        H      0.182733333333     0.042900000000     0.040600000000     0.147      
H        H      0.227333333333     0.063166666667     0.044500000000     0.147      
H        H      0.296300000000     0.296600000000     0.429850000000     0.147      
H        H      0.321166666667     0.332866666667     0.442100000000     0.147      
H        H      0.284100000000     0.000533333333     0.408350000000     0.147      
H        H      0.147866666667     0.046233333333     0.644900000000     0.147      
H        H      0.166500000000     0.064566666667     0.607600000000     0.147      
H        H      0.133366666667     0.032033333333     0.602250000000     0.147      
H        H      0.001166666667     0.141933333333     0.580050000000     0.147      
H        H      0.041033333333     0.160433333333     0.562150000000     0.147      
H        H      0.014666666667     0.064233333333     0.923400000000     0.147      
H        H      0.053233333333     0.050600000000     0.951850000000     0.147      
H        H      0.057066666667     0.087633333333     0.928350000000     0.147      
H        H      0.003466666667     0.327800000000     0.677950000000     0.147      
H        H      0.020900000000     0.027033333333     0.652950000000     0.147      
H        H      0.052333333333     0.005300000000     0.682650000000     0.147      
H        H      0.016066666667     0.123766666667     0.790600000000     0.147      
H        H      0.060666666667     0.103500000000     0.794500000000     0.147      
H        H      0.129633333333     0.203400000000     0.679850000000     0.147      
H        H      0.154500000000     0.167133333333     0.692100000000     0.147      
H        H      0.117433333333     0.166133333333     0.658350000000     0.147      
H        H      0.018800000000     0.212900000000     0.605100000000     0.147      
H        H      0.000166666667     0.231233333333     0.642400000000     0.147      
H        H      0.033300000000     0.198700000000     0.647750000000     0.147      
H        H      0.165500000000     0.308600000000     0.669950000000     0.147      
H        H      0.125633333333     0.327100000000     0.687850000000     0.147      
H        H      0.152000000000     0.230900000000     0.826600000000     0.147      
H        H      0.113433333333     0.217266666667     0.798150000000     0.147      
H        H      0.109600000000     0.254300000000     0.821650000000     0.147      
H        H      0.163200000000     0.161133333333     0.572050000000     0.147      
H        H      0.145766666667     0.193700000000     0.597050000000     0.147      
H        H      0.114333333333     0.171966666667     0.567350000000     0.147      
H        H      0.150600000000     0.290433333333     0.959400000000     0.147      
H        H      0.106000000000     0.270166666667     0.955500000000     0.147      
H        H      0.037033333333     0.036733333333     0.570150000000     0.147      
H        H      0.012166666667     0.000466666667     0.557900000000     0.147      
H        H      0.049233333333     0.332800000000     0.591650000000     0.147      
H        H      0.185466666667     0.287100000000     0.855100000000     0.147      
H        H      0.166833333333     0.268766666667     0.892400000000     0.147      
H        H      0.199966666667     0.301300000000     0.897750000000     0.147      
H        H      0.332166666667     0.191400000000     0.919950000000     0.147      
H        H      0.292300000000     0.172900000000     0.937850000000     0.147      
H        H      0.318666666667     0.269100000000     0.576600000000     0.147      
H        H      0.280100000000     0.282733333333     0.548150000000     0.147      
H        H      0.276266666667     0.245700000000     0.571650000000     0.147      
H        H      0.329866666667     0.005533333333     0.822050000000     0.147      
H        H      0.312433333333     0.306300000000     0.847050000000     0.147      
H        H      0.281000000000     0.328033333333     0.817350000000     0.147      
H        H      0.317266666667     0.209566666667     0.709400000000     0.147      
H        H      0.272666666667     0.229833333333     0.705500000000     0.147      
H        H      0.203700000000     0.129933333333     0.820150000000     0.147      
H        H      0.178833333333     0.166200000000     0.807900000000     0.147      
H        H      0.215900000000     0.167200000000     0.841650000000     0.147      
H        H      0.314533333333     0.120433333333     0.894900000000     0.147      
H        H      0.333166666667     0.102100000000     0.857600000000     0.147      
H        H      0.300033333333     0.134633333333     0.852250000000     0.147      
H        H      0.167833333333     0.024733333333     0.830050000000     0.147      
H        H      0.207700000000     0.006233333333     0.812150000000     0.147      
H        H      0.181333333333     0.102433333333     0.673400000000     0.147      
H        H      0.219900000000     0.116066666667     0.701850000000     0.147      
H        H      0.223733333333     0.079033333333     0.678350000000     0.147      
H        H      0.170133333333     0.172200000000     0.927950000000     0.147      
H        H      0.187566666667     0.139633333333     0.902950000000     0.147      
H        H      0.219000000000     0.161366666667     0.932650000000     0.147      
H        H      0.182733333333     0.042900000000     0.540600000000     0.147      
H        H      0.227333333333     0.063166666667     0.544500000000     0.147      
H        H      0.296300000000     0.296600000000     0.929850000000     0.147      
H        H      0.321166666667     0.332866666667     0.942100000000     0.147      
H        H      0.284100000000     0.000533333333     0.908350000000     0.147      
H        H      0.147866666667     0.379566666667     0.144900000000     0.147      
H        H      0.166500000000     0.397900000000     0.107600000000     0.147      
H        H      0.133366666667     0.365366666667     0.102250000000     0.147      
H        H      0.001166666667     0.475266666667     0.080050000000     0.147      
H        H      0.041033333333     0.493766666667     0.062150000000     0.147      
H        H      0.014666666667     0.397566666667     0.423400000000     0.147      
H        H      0.053233333333     0.383933333333     0.451850000000     0.147      
H        H      0.057066666667     0.420966666667     0.428350000000     0.147      
H        H      0.003466666667     0.661133333333     0.177950000000     0.147      
H        H      0.020900000000     0.360366666667     0.152950000000     0.147      
H        H      0.052333333333     0.338633333333     0.182650000000     0.147      
H        H      0.016066666667     0.457100000000     0.290600000000     0.147      
H        H      0.060666666667     0.436833333333     0.294500000000     0.147      
H        H      0.129633333333     0.536733333333     0.179850000000     0.147      
H        H      0.154500000000     0.500466666667     0.192100000000     0.147      
H        H      0.117433333333     0.499466666667     0.158350000000     0.147      
H        H      0.018800000000     0.546233333333     0.105100000000     0.147      
H        H      0.000166666667     0.564566666667     0.142400000000     0.147      
H        H      0.033300000000     0.532033333333     0.147750000000     0.147      
H        H      0.165500000000     0.641933333333     0.169950000000     0.147      
H        H      0.125633333333     0.660433333333     0.187850000000     0.147      
H        H      0.152000000000     0.564233333333     0.326600000000     0.147      
H        H      0.113433333333     0.550600000000     0.298150000000     0.147      
H        H      0.109600000000     0.587633333333     0.321650000000     0.147      
H        H      0.163200000000     0.494466666667     0.072050000000     0.147      
H        H      0.145766666667     0.527033333333     0.097050000000     0.147      
H        H      0.114333333333     0.505300000000     0.067350000000     0.147      
H        H      0.150600000000     0.623766666667     0.459400000000     0.147      
H        H      0.106000000000     0.603500000000     0.455500000000     0.147      
H        H      0.037033333333     0.370066666667     0.070150000000     0.147      
H        H      0.012166666667     0.333800000000     0.057900000000     0.147      
H        H      0.049233333333     0.666133333333     0.091650000000     0.147      
H        H      0.185466666667     0.620433333333     0.355100000000     0.147      
H        H      0.166833333333     0.602100000000     0.392400000000     0.147      
H        H      0.199966666667     0.634633333333     0.397750000000     0.147      
H        H      0.332166666667     0.524733333333     0.419950000000     0.147      
H        H      0.292300000000     0.506233333333     0.437850000000     0.147      
H        H      0.318666666667     0.602433333333     0.076600000000     0.147      
H        H      0.280100000000     0.616066666667     0.048150000000     0.147      
H        H      0.276266666667     0.579033333333     0.071650000000     0.147      
H        H      0.329866666667     0.338866666667     0.322050000000     0.147      
H        H      0.312433333333     0.639633333333     0.347050000000     0.147      
H        H      0.281000000000     0.661366666667     0.317350000000     0.147      
H        H      0.317266666667     0.542900000000     0.209400000000     0.147      
H        H      0.272666666667     0.563166666667     0.205500000000     0.147      
H        H      0.203700000000     0.463266666667     0.320150000000     0.147      
H        H      0.178833333333     0.499533333333     0.307900000000     0.147      
H        H      0.215900000000     0.500533333333     0.341650000000     0.147      
H        H      0.314533333333     0.453766666667     0.394900000000     0.147      
H        H      0.333166666667     0.435433333333     0.357600000000     0.147      
H        H      0.300033333333     0.467966666667     0.352250000000     0.147      
H        H      0.167833333333     0.358066666667     0.330050000000     0.147      
H        H      0.207700000000     0.339566666667     0.312150000000     0.147      
H        H      0.181333333333     0.435766666667     0.173400000000     0.147      
H        H      0.219900000000     0.449400000000     0.201850000000     0.147      
H        H      0.223733333333     0.412366666667     0.178350000000     0.147      
H        H      0.170133333333     0.505533333333     0.427950000000     0.147      
H        H      0.187566666667     0.472966666667     0.402950000000     0.147      
H        H      0.219000000000     0.494700000000     0.432650000000     0.147      
H        H      0.182733333333     0.376233333333     0.040600000000     0.147      
H        H      0.227333333333     0.396500000000     0.044500000000     0.147      
H        H      0.296300000000     0.629933333333     0.429850000000     0.147      
H        H      0.321166666667     0.666200000000     0.442100000000     0.147      
H        H      0.284100000000     0.333866666667     0.408350000000     0.147      
H        H      0.147866666667     0.379566666667     0.644900000000     0.147      
H        H      0.166500000000     0.397900000000     0.607600000000     0.147      
H        H      0.133366666667     0.365366666667     0.602250000000     0.147      
H        H      0.001166666667     0.475266666667     0.580050000000     0.147      
H        H      0.041033333333     0.493766666667     0.562150000000     0.147      
H        H      0.014666666667     0.397566666667     0.923400000000     0.147      
H        H      0.053233333333     0.383933333333     0.951850000000     0.147      
H        H      0.057066666667     0.420966666667     0.928350000000     0.147      
H        H      0.003466666667     0.661133333333     0.677950000000     0.147      
H        H      0.020900000000     0.360366666667     0.652950000000     0.147      
H        H      0.052333333333     0.338633333333     0.682650000000     0.147      
H        H      0.016066666667     0.457100000000     0.790600000000     0.147      
H        H      0.060666666667     0.436833333333     0.794500000000     0.147      
H        H      0.129633333333     0.536733333333     0.679850000000     0.147      
H        H      0.154500000000     0.500466666667     0.692100000000     0.147      
H        H      0.117433333333     0.499466666667     0.658350000000     0.147      
H        H      0.018800000000     0.546233333333     0.605100000000     0.147      
H        H      0.000166666667     0.564566666667     0.642400000000     0.147      
H        H      0.033300000000     0.532033333333     0.647750000000     0.147      
H        H      0.165500000000     0.641933333333     0.669950000000     0.147      
H        H      0.125633333333     0.660433333333     0.687850000000     0.147      
H        H      0.152000000000     0.564233333333     0.826600000000     0.147      
H        H      0.113433333333     0.550600000000     0.798150000000     0.147      
H        H      0.109600000000     0.587633333333     0.821650000000     0.147      
H        H      0.163200000000     0.494466666667     0.572050000000     0.147      
H        H      0.145766666667     0.527033333333     0.597050000000     0.147      
H        H      0.114333333333     0.505300000000     0.567350000000     0.147      
H        H      0.150600000000     0.623766666667     0.959400000000     0.147      
H        H      0.106000000000     0.603500000000     0.955500000000     0.147      
H        H      0.037033333333     0.370066666667     0.570150000000     0.147      
H        H      0.012166666667     0.333800000000     0.557900000000     0.147      
H        H      0.049233333333     0.666133333333     0.591650000000     0.147      
H        H      0.185466666667     0.620433333333     0.855100000000     0.147      
H        H      0.166833333333     0.602100000000     0.892400000000     0.147      
H        H      0.199966666667     0.634633333333     0.897750000000     0.147      
H        H      0.332166666667     0.524733333333     0.919950000000     0.147      
H        H      0.292300000000     0.506233333333     0.937850000000     0.147      
H        H      0.318666666667     0.602433333333     0.576600000000     0.147      
H        H      0.280100000000     0.616066666667     0.548150000000     0.147      
H        H      0.276266666667     0.579033333333     0.571650000000     0.147      
H        H      0.329866666667     0.338866666667     0.822050000000     0.147      
H        H      0.312433333333     0.639633333333     0.847050000000     0.147      
H        H      0.281000000000     0.661366666667     0.817350000000     0.147      
H        H      0.317266666667     0.542900000000     0.709400000000     0.147      
H        H      0.272666666667     0.563166666667     0.705500000000     0.147      
H        H      0.203700000000     0.463266666667     0.820150000000     0.147      
H        H      0.178833333333     0.499533333333     0.807900000000     0.147      
H        H      0.215900000000     0.500533333333     0.841650000000     0.147      
H        H      0.314533333333     0.453766666667     0.894900000000     0.147      
H        H      0.333166666667     0.435433333333     0.857600000000     0.147      
H        H      0.300033333333     0.467966666667     0.852250000000     0.147      
H        H      0.167833333333     0.358066666667     0.830050000000     0.147      
H        H      0.207700000000     0.339566666667     0.812150000000     0.147      
H        H      0.181333333333     0.435766666667     0.673400000000     0.147      
H        H      0.219900000000     0.449400000000     0.701850000000     0.147      
H        H      0.223733333333     0.412366666667     0.678350000000     0.147      
H        H      0.170133333333     0.505533333333     0.927950000000     0.147      
H        H      0.187566666667     0.472966666667     0.902950000000     0.147      
H        H      0.219000000000     0.494700000000     0.932650000000     0.147      
H        H      0.182733333333     0.376233333333     0.540600000000     0.147      
H        H      0.227333333333     0.396500000000     0.544500000000     0.147      
H        H      0.296300000000     0.629933333333     0.929850000000     0.147      
H        H      0.321166666667     0.666200000000     0.942100000000     0.147      
H        H      0.284100000000     0.333866666667     0.908350000000     0.147      
H        H      0.147866666667     0.712900000000     0.144900000000     0.147      
H        H      0.166500000000     0.731233333333     0.107600000000     0.147      
H        H      0.133366666667     0.698700000000     0.102250000000     0.147      
H        H      0.001166666667     0.808600000000     0.080050000000     0.147      
H        H      0.041033333333     0.827100000000     0.062150000000     0.147      
H        H      0.014666666667     0.730900000000     0.423400000000     0.147      
H        H      0.053233333333     0.717266666667     0.451850000000     0.147      
H        H      0.057066666667     0.754300000000     0.428350000000     0.147      
H        H      0.003466666667     0.994466666667     0.177950000000     0.147      
H        H      0.020900000000     0.693700000000     0.152950000000     0.147      
H        H      0.052333333333     0.671966666667     0.182650000000     0.147      
H        H      0.016066666667     0.790433333333     0.290600000000     0.147      
H        H      0.060666666667     0.770166666667     0.294500000000     0.147      
H        H      0.129633333333     0.870066666667     0.179850000000     0.147      
H        H      0.154500000000     0.833800000000     0.192100000000     0.147      
H        H      0.117433333333     0.832800000000     0.158350000000     0.147      
H        H      0.018800000000     0.879566666667     0.105100000000     0.147      
H        H      0.000166666667     0.897900000000     0.142400000000     0.147      
H        H      0.033300000000     0.865366666667     0.147750000000     0.147      
H        H      0.165500000000     0.975266666667     0.169950000000     0.147      
H        H      0.125633333333     0.993766666667     0.187850000000     0.147      
H        H      0.152000000000     0.897566666667     0.326600000000     0.147      
H        H      0.113433333333     0.883933333333     0.298150000000     0.147      
H        H      0.109600000000     0.920966666667     0.321650000000     0.147      
H        H      0.163200000000     0.827800000000     0.072050000000     0.147      
H        H      0.145766666667     0.860366666667     0.097050000000     0.147      
H        H      0.114333333333     0.838633333333     0.067350000000     0.147      
H        H      0.150600000000     0.957100000000     0.459400000000     0.147      
H        H      0.106000000000     0.936833333333     0.455500000000     0.147      
H        H      0.037033333333     0.703400000000     0.070150000000     0.147      
H        H      0.012166666667     0.667133333333     0.057900000000     0.147      
H        H      0.049233333333     0.999466666667     0.091650000000     0.147      
H        H      0.185466666667     0.953766666667     0.355100000000     0.147      
H        H      0.166833333333     0.935433333333     0.392400000000     0.147      
H        H      0.199966666667     0.967966666667     0.397750000000     0.147      
H        H      0.332166666667     0.858066666667     0.419950000000     0.147      
H        H      0.292300000000     0.839566666667     0.437850000000     0.147      
H        H      0.318666666667     0.935766666667     0.076600000000     0.147      
H        H      0.280100000000     0.949400000000     0.048150000000     0.147      
H        H      0.276266666667     0.912366666667     0.071650000000     0.147      
H        H      0.329866666667     0.672200000000     0.322050000000     0.147      
H        H      0.312433333333     0.972966666667     0.347050000000     0.147      
H        H      0.281000000000     0.994700000000     0.317350000000     0.147      
H        H      0.317266666667     0.876233333333     0.209400000000     0.147      
H        H      0.272666666667     0.896500000000     0.205500000000     0.147      
H        H      0.203700000000     0.796600000000     0.320150000000     0.147      
H        H      0.178833333333     0.832866666667     0.307900000000     0.147      
H        H      0.215900000000     0.833866666667     0.341650000000     0.147      
H        H      0.314533333333     0.787100000000     0.394900000000     0.147      
H        H      0.333166666667     0.768766666667     0.357600000000     0.147      
H        H      0.300033333333     0.801300000000     0.352250000000     0.147      
H        H      0.167833333333     0.691400000000     0.330050000000     0.147      
H        H      0.207700000000     0.672900000000     0.312150000000     0.147      
H        H      0.181333333333     0.769100000000     0.173400000000     0.147      
H        H      0.219900000000     0.782733333333     0.201850000000     0.147      
H        H      0.223733333333     0.745700000000     0.178350000000     0.147      
H        H      0.170133333333     0.838866666667     0.427950000000     0.147      
H        H      0.187566666667     0.806300000000     0.402950000000     0.147      
H        H      0.219000000000     0.828033333333     0.432650000000     0.147      
H        H      0.182733333333     0.709566666667     0.040600000000     0.147      
H        H      0.227333333333     0.729833333333     0.044500000000     0.147      
H        H      0.296300000000     0.963266666667     0.429850000000     0.147      
H        H      0.321166666667     0.999533333333     0.442100000000     0.147      
H        H      0.284100000000     0.667200000000     0.408350000000     0.147      
H        H      0.147866666667     0.712900000000     0.644900000000     0.147      
H        H      0.166500000000     0.731233333333     0.607600000000     0.147      
H        H      0.133366666667     0.698700000000     0.602250000000     0.147      
H        H      0.001166666667     0.808600000000     0.580050000000     0.147      
H        H      0.041033333333     0.827100000000     0.562150000000     0.147      
H        H      0.014666666667     0.730900000000     0.923400000000     0.147      
H        H      0.053233333333     0.717266666667     0.951850000000     0.147      
H        H      0.057066666667     0.754300000000     0.928350000000     0.147      
H        H      0.003466666667     0.994466666667     0.677950000000     0.147      
H        H      0.020900000000     0.693700000000     0.652950000000     0.147      
H        H      0.052333333333     0.671966666667     0.682650000000     0.147      
H        H      0.016066666667     0.790433333333     0.790600000000     0.147      
H        H      0.060666666667     0.770166666667     0.794500000000     0.147      
H        H      0.129633333333     0.870066666667     0.679850000000     0.147      
H        H      0.154500000000     0.833800000000     0.692100000000     0.147      
H        H      0.117433333333     0.832800000000     0.658350000000     0.147      
H        H      0.018800000000     0.879566666667     0.605100000000     0.147      
H        H      0.000166666667     0.897900000000     0.642400000000     0.147      
H        H      0.033300000000     0.865366666667     0.647750000000     0.147      
H        H      0.165500000000     0.975266666667     0.669950000000     0.147      
H        H      0.125633333333     0.993766666667     0.687850000000     0.147      
H        H      0.152000000000     0.897566666667     0.826600000000     0.147      
H        H      0.113433333333     0.883933333333     0.798150000000     0.147      
H        H      0.109600000000     0.920966666667     0.821650000000     0.147      
H        H      0.163200000000     0.827800000000     0.572050000000     0.147      
H        H      0.145766666667     0.860366666667     0.597050000000     0.147      
H        H      0.114333333333     0.838633333333     0.567350000000     0.147      
H        H      0.150600000000     0.957100000000     0.959400000000     0.147      
H        H      0.106000000000     0.936833333333     0.955500000000     0.147      
H        H      0.037033333333     0.703400000000     0.570150000000     0.147      
H        H      0.012166666667     0.667133333333     0.557900000000     0.147      
H        H      0.049233333333     0.999466666667     0.591650000000     0.147      
H        H      0.185466666667     0.953766666667     0.855100000000     0.147      
H        H      0.166833333333     0.935433333333     0.892400000000     0.147      
H        H      0.199966666667     0.967966666667     0.897750000000     0.147      
H        H      0.332166666667     0.858066666667     0.919950000000     0.147      
H        H      0.292300000000     0.839566666667     0.937850000000     0.147      
H        H      0.318666666667     0.935766666667     0.576600000000     0.147      
H        H      0.280100000000     0.949400000000     0.548150000000     0.147      
H        H      0.276266666667     0.912366666667     0.571650000000     0.147      
H        H      0.329866666667     0.672200000000     0.822050000000     0.147      
H        H      0.312433333333     0.972966666667     0.847050000000     0.147      
H        H      0.281000000000     0.994700000000     0.817350000000     0.147      
H        H      0.317266666667     0.876233333333     0.709400000000     0.147      
H        H      0.272666666667     0.896500000000     0.705500000000     0.147      
H        H      0.203700000000     0.796600000000     0.820150000000     0.147      
H        H      0.178833333333     0.832866666667     0.807900000000     0.147      
H        H      0.215900000000     0.833866666667     0.841650000000     0.147      
H        H      0.314533333333     0.787100000000     0.894900000000     0.147      
H        H      0.333166666667     0.768766666667     0.857600000000     0.147      
H        H      0.300033333333     0.801300000000     0.852250000000     0.147      
H        H      0.167833333333     0.691400000000     0.830050000000     0.147      
H        H      0.207700000000     0.672900000000     0.812150000000     0.147      
H        H      0.181333333333     0.769100000000     0.673400000000     0.147      
H        H      0.219900000000     0.782733333333     0.701850000000     0.147      
H        H      0.223733333333     0.745700000000     0.678350000000     0.147      
H        H      0.170133333333     0.838866666667     0.927950000000     0.147      
H        H      0.187566666667     0.806300000000     0.902950000000     0.147      
H        H      0.219000000000     0.828033333333     0.932650000000     0.147      
H        H      0.182733333333     0.709566666667     0.540600000000     0.147      
H        H      0.227333333333     0.729833333333     0.544500000000     0.147      
H        H      0.296300000000     0.963266666667     0.929850000000     0.147      
H        H      0.321166666667     0.999533333333     0.942100000000     0.147      
H        H      0.284100000000     0.667200000000     0.908350000000     0.147      
H        H      0.481200000000     0.046233333333     0.144900000000     0.147      
H        H      0.499833333333     0.064566666667     0.107600000000     0.147      
H        H      0.466700000000     0.032033333333     0.102250000000     0.147      
H        H      0.334500000000     0.141933333333     0.080050000000     0.147      
H        H      0.374366666667     0.160433333333     0.062150000000     0.147      
H        H      0.348000000000     0.064233333333     0.423400000000     0.147      
H        H      0.386566666667     0.050600000000     0.451850000000     0.147      
H        H      0.390400000000     0.087633333333     0.428350000000     0.147      
H        H      0.336800000000     0.327800000000     0.177950000000     0.147      
H        H      0.354233333333     0.027033333333     0.152950000000     0.147      
H        H      0.385666666667     0.005300000000     0.182650000000     0.147      
H        H      0.349400000000     0.123766666667     0.290600000000     0.147      
H        H      0.394000000000     0.103500000000     0.294500000000     0.147      
H        H      0.462966666667     0.203400000000     0.179850000000     0.147      
H        H      0.487833333333     0.167133333333     0.192100000000     0.147      
H        H      0.450766666667     0.166133333333     0.158350000000     0.147      
H        H      0.352133333333     0.212900000000     0.105100000000     0.147      
H        H      0.333500000000     0.231233333333     0.142400000000     0.147      
H        H      0.366633333333     0.198700000000     0.147750000000     0.147      
H        H      0.498833333333     0.308600000000     0.169950000000     0.147      
H        H      0.458966666667     0.327100000000     0.187850000000     0.147      
H        H      0.485333333333     0.230900000000     0.326600000000     0.147      
H        H      0.446766666667     0.217266666667     0.298150000000     0.147      
H        H      0.442933333333     0.254300000000     0.321650000000     0.147      
H        H      0.496533333333     0.161133333333     0.072050000000     0.147      
H        H      0.479100000000     0.193700000000     0.097050000000     0.147      
H        H      0.447666666667     0.171966666667     0.067350000000     0.147      
H        H      0.483933333333     0.290433333333     0.459400000000     0.147      
H        H      0.439333333333     0.270166666667     0.455500000000     0.147      
H        H      0.370366666667     0.036733333333     0.070150000000     0.147      
H        H      0.345500000000     0.000466666667     0.057900000000     0.147      
H        H      0.382566666667     0.332800000000     0.091650000000     0.147      
H        H      0.518800000000     0.287100000000     0.355100000000     0.147      
H        H      0.500166666667     0.268766666667     0.392400000000     0.147      
H        H      0.533300000000     0.301300000000     0.397750000000     0.147      
H        H      0.665500000000     0.191400000000     0.419950000000     0.147      
H        H      0.625633333333     0.172900000000     0.437850000000     0.147      
H        H      0.652000000000     0.269100000000     0.076600000000     0.147      
H        H      0.613433333333     0.282733333333     0.048150000000     0.147      
H        H      0.609600000000     0.245700000000     0.071650000000     0.147      
H        H      0.663200000000     0.005533333333     0.322050000000     0.147      
H        H      0.645766666667     0.306300000000     0.347050000000     0.147      
H        H      0.614333333333     0.328033333333     0.317350000000     0.147      
H        H      0.650600000000     0.209566666667     0.209400000000     0.147      
H        H      0.606000000000     0.229833333333     0.205500000000     0.147      
H        H      0.537033333333     0.129933333333     0.320150000000     0.147      
H        H      0.512166666667     0.166200000000     0.307900000000     0.147      
H        H      0.549233333333     0.167200000000     0.341650000000     0.147      
H        H      0.647866666667     0.120433333333     0.394900000000     0.147      
H        H      0.666500000000     0.102100000000     0.357600000000     0.147      
H        H      0.633366666667     0.134633333333     0.352250000000     0.147      
H        H      0.501166666667     0.024733333333     0.330050000000     0.147      
H        H      0.541033333333     0.006233333333     0.312150000000     0.147      
H        H      0.514666666667     0.102433333333     0.173400000000     0.147      
H        H      0.553233333333     0.116066666667     0.201850000000     0.147      
H        H      0.557066666667     0.079033333333     0.178350000000     0.147      
H        H      0.503466666667     0.172200000000     0.427950000000     0.147      
H        H      0.520900000000     0.139633333333     0.402950000000     0.147      
H        H      0.552333333333     0.161366666667     0.432650000000     0.147      
H        H      0.516066666667     0.042900000000     0.040600000000     0.147      
H        H      0.560666666667     0.063166666667     0.044500000000     0.147      
H        H      0.629633333333     0.296600000000     0.429850000000     0.147      
H        H      0.654500000000     0.332866666667     0.442100000000     0.147      
H        H      0.617433333333     0.000533333333     0.408350000000     0.147      
H        H      0.481200000000     0.046233333333     0.644900000000     0.147      
H        H      0.499833333333     0.064566666667     0.607600000000     0.147      
H        H      0.466700000000     0.032033333333     0.602250000000     0.147      
H        H      0.334500000000     0.141933333333     0.580050000000     0.147      
H        H      0.374366666667     0.160433333333     0.562150000000     0.147      
H        H      0.348000000000     0.064233333333     0.923400000000     0.147      
H        H      0.386566666667     0.050600000000     0.951850000000     0.147      
H        H      0.390400000000     0.087633333333     0.928350000000     0.147      
H        H      0.336800000000     0.327800000000     0.677950000000     0.147      
H        H      0.354233333333     0.027033333333     0.652950000000     0.147      
H        H      0.385666666667     0.005300000000     0.682650000000     0.147      
H        H      0.349400000000     0.123766666667     0.790600000000     0.147      
H        H      0.394000000000     0.103500000000     0.794500000000     0.147      
H        H      0.462966666667     0.203400000000     0.679850000000     0.147      
H        H      0.487833333333     0.167133333333     0.692100000000     0.147      
H        H      0.450766666667     0.166133333333     0.658350000000     0.147      
H        H      0.352133333333     0.212900000000     0.605100000000     0.147      
H        H      0.333500000000     0.231233333333     0.642400000000     0.147      
H        H      0.366633333333     0.198700000000     0.647750000000     0.147      
H        H      0.498833333333     0.308600000000     0.669950000000     0.147      
H        H      0.458966666667     0.327100000000     0.687850000000     0.147      
H        H      0.485333333333     0.230900000000     0.826600000000     0.147      
H        H      0.446766666667     0.217266666667     0.798150000000     0.147      
H        H      0.442933333333     0.254300000000     0.821650000000     0.147      
H        H      0.496533333333     0.161133333333     0.572050000000     0.147      
H        H      0.479100000000     0.193700000000     0.597050000000     0.147      
H        H      0.447666666667     0.171966666667     0.567350000000     0.147      
H        H      0.483933333333     0.290433333333     0.959400000000     0.147      
H        H      0.439333333333     0.270166666667     0.955500000000     0.147      
H        H      0.370366666667     0.036733333333     0.570150000000     0.147      
H        H      0.345500000000     0.000466666667     0.557900000000     0.147      
H        H      0.382566666667     0.332800000000     0.591650000000     0.147      
H        H      0.518800000000     0.287100000000     0.855100000000     0.147      
H        H      0.500166666667     0.268766666667     0.892400000000     0.147      
H        H      0.533300000000     0.301300000000     0.897750000000     0.147      
H        H      0.665500000000     0.191400000000     0.919950000000     0.147      
H        H      0.625633333333     0.172900000000     0.937850000000     0.147      
H        H      0.652000000000     0.269100000000     0.576600000000     0.147      
H        H      0.613433333333     0.282733333333     0.548150000000     0.147      
H        H      0.609600000000     0.245700000000     0.571650000000     0.147      
H        H      0.663200000000     0.005533333333     0.822050000000     0.147      
H        H      0.645766666667     0.306300000000     0.847050000000     0.147      
H        H      0.614333333333     0.328033333333     0.817350000000     0.147      
H        H      0.650600000000     0.209566666667     0.709400000000     0.147      
H        H      0.606000000000     0.229833333333     0.705500000000     0.147      
H        H      0.537033333333     0.129933333333     0.820150000000     0.147      
H        H      0.512166666667     0.166200000000     0.807900000000     0.147      
H        H      0.549233333333     0.167200000000     0.841650000000     0.147      
H        H      0.647866666667     0.120433333333     0.894900000000     0.147      
H        H      0.666500000000     0.102100000000     0.857600000000     0.147      
H        H      0.633366666667     0.134633333333     0.852250000000     0.147      
H        H      0.501166666667     0.024733333333     0.830050000000     0.147      
H        H      0.541033333333     0.006233333333     0.812150000000     0.147      
H        H      0.514666666667     0.102433333333     0.673400000000     0.147      
H        H      0.553233333333     0.116066666667     0.701850000000     0.147      
H        H      0.557066666667     0.079033333333     0.678350000000     0.147      
H        H      0.503466666667     0.172200000000     0.927950000000     0.147      
H        H      0.520900000000     0.139633333333     0.902950000000     0.147      
H        H      0.552333333333     0.161366666667     0.932650000000     0.147      
H        H      0.516066666667     0.042900000000     0.540600000000     0.147      
H        H      0.560666666667     0.063166666667     0.544500000000     0.147      
H        H      0.629633333333     0.296600000000     0.929850000000     0.147      
H        H      0.654500000000     0.332866666667     0.942100000000     0.147      
H        H      0.617433333333     0.000533333333     0.908350000000     0.147      
H        H      0.481200000000     0.379566666667     0.144900000000     0.147      
H        H      0.499833333333     0.397900000000     0.107600000000     0.147      
H        H      0.466700000000     0.365366666667     0.102250000000     0.147      
H        H      0.334500000000     0.475266666667     0.080050000000     0.147      
H        H      0.374366666667     0.493766666667     0.062150000000     0.147      
H        H      0.348000000000     0.397566666667     0.423400000000     0.147      
H        H      0.386566666667     0.383933333333     0.451850000000     0.147      
H        H      0.390400000000     0.420966666667     0.428350000000     0.147      
H        H      0.336800000000     0.661133333333     0.177950000000     0.147      
H        H      0.354233333333     0.360366666667     0.152950000000     0.147      
H        H      0.385666666667     0.338633333333     0.182650000000     0.147      
H        H      0.349400000000     0.457100000000     0.290600000000     0.147      
H        H      0.394000000000     0.436833333333     0.294500000000     0.147      
H        H      0.462966666667     0.536733333333     0.179850000000     0.147      
H        H      0.487833333333     0.500466666667     0.192100000000     0.147      
H        H      0.450766666667     0.499466666667     0.158350000000     0.147      
H        H      0.352133333333     0.546233333333     0.105100000000     0.147      
H        H      0.333500000000     0.564566666667     0.142400000000     0.147      
H        H      0.366633333333     0.532033333333     0.147750000000     0.147      
H        H      0.498833333333     0.641933333333     0.169950000000     0.147      
H        H      0.458966666667     0.660433333333     0.187850000000     0.147      
H        H      0.485333333333     0.564233333333     0.326600000000     0.147      
H        H      0.446766666667     0.550600000000     0.298150000000     0.147      
H        H      0.442933333333     0.587633333333     0.321650000000     0.147      
H        H      0.496533333333     0.494466666667     0.072050000000     0.147      
H        H      0.479100000000     0.527033333333     0.097050000000     0.147      
H        H      0.447666666667     0.505300000000     0.067350000000     0.147      
H        H      0.483933333333     0.623766666667     0.459400000000     0.147      
H        H      0.439333333333     0.603500000000     0.455500000000     0.147      
H        H      0.370366666667     0.370066666667     0.070150000000     0.147      
H        H      0.345500000000     0.333800000000     0.057900000000     0.147      
H        H      0.382566666667     0.666133333333     0.091650000000     0.147      
H        H      0.518800000000     0.620433333333     0.355100000000     0.147      
H        H      0.500166666667     0.602100000000     0.392400000000     0.147      
H        H      0.533300000000     0.634633333333     0.397750000000     0.147      
H        H      0.665500000000     0.524733333333     0.419950000000     0.147      
H        H      0.625633333333     0.506233333333     0.437850000000     0.147      
H        H      0.652000000000     0.602433333333     0.076600000000     0.147      
H        H      0.613433333333     0.616066666667     0.048150000000     0.147      
H        H      0.609600000000     0.579033333333     0.071650000000     0.147      
H        H      0.663200000000     0.338866666667     0.322050000000     0.147      
H        H      0.645766666667     0.639633333333     0.347050000000     0.147      
H        H      0.614333333333     0.661366666667     0.317350000000     0.147      
H        H      0.650600000000     0.542900000000     0.209400000000     0.147      
H        H      0.606000000000     0.563166666667     0.205500000000     0.147      
H        H      0.537033333333     0.463266666667     0.320150000000     0.147      
H        H      0.512166666667     0.499533333333     0.307900000000     0.147      
H        H      0.549233333333     0.500533333333     0.341650000000     0.147      
H        H      0.647866666667     0.453766666667     0.394900000000     0.147      
H        H      0.666500000000     0.435433333333     0.357600000000     0.147      
H        H      0.633366666667     0.467966666667     0.352250000000     0.147      
H        H      0.501166666667     0.358066666667     0.330050000000     0.147      
H        H      0.541033333333     0.339566666667     0.312150000000     0.147      
H        H      0.514666666667     0.435766666667     0.173400000000     0.147      
H        H      0.553233333333     0.449400000000     0.201850000000     0.147      
H        H      0.557066666667     0.412366666667     0.178350000000     0.147      
H        H      0.503466666667     0.505533333333     0.427950000000     0.147      
H        H      0.520900000000     0.472966666667     0.402950000000     0.147      
H        H      0.552333333333     0.494700000000     0.432650000000     0.147      
H        H      0.516066666667     0.376233333333     0.040600000000     0.147      
H        H      0.560666666667     0.396500000000     0.044500000000     0.147      
H        H      0.629633333333     0.629933333333     0.429850000000     0.147      
H        H      0.654500000000     0.666200000000     0.442100000000     0.147      
H        H      0.617433333333     0.333866666667     0.408350000000     0.147      
H        H      0.481200000000     0.379566666667     0.644900000000     0.147      
H        H      0.499833333333     0.397900000000     0.607600000000     0.147      
H        H      0.466700000000     0.365366666667     0.602250000000     0.147      
H        H      0.334500000000     0.475266666667     0.580050000000     0.147      
H        H      0.374366666667     0.493766666667     0.562150000000     0.147      
H        H      0.348000000000     0.397566666667     0.923400000000     0.147      
H        H      0.386566666667     0.383933333333     0.951850000000     0.147      
H        H      0.390400000000     0.420966666667     0.928350000000     0.147      
H        H      0.336800000000     0.661133333333     0.677950000000     0.147      
H        H      0.354233333333     0.360366666667     0.652950000000     0.147      
H        H      0.385666666667     0.338633333333     0.682650000000     0.147      
H        H      0.349400000000     0.457100000000     0.790600000000     0.147      
H        H      0.394000000000     0.436833333333     0.794500000000     0.147      
H        H      0.462966666667     0.536733333333     0.679850000000     0.147      
H        H      0.487833333333     0.500466666667     0.692100000000     0.147      
H        H      0.450766666667     0.499466666667     0.658350000000     0.147      
H        H      0.352133333333     0.546233333333     0.605100000000     0.147      
H        H      0.333500000000     0.564566666667     0.642400000000     0.147      
H        H      0.366633333333     0.532033333333     0.647750000000     0.147      
H        H      0.498833333333     0.641933333333     0.669950000000     0.147      
H        H      0.458966666667     0.660433333333     0.687850000000     0.147      
H        H      0.485333333333     0.564233333333     0.826600000000     0.147      
H        H      0.446766666667     0.550600000000     0.798150000000     0.147      
H        H      0.442933333333     0.587633333333     0.821650000000     0.147      
H        H      0.496533333333     0.494466666667     0.572050000000     0.147      
H        H      0.479100000000     0.527033333333     0.597050000000     0.147      
H        H      0.447666666667     0.505300000000     0.567350000000     0.147      
H        H      0.483933333333     0.623766666667     0.959400000000     0.147      
H        H      0.439333333333     0.603500000000     0.955500000000     0.147      
H        H      0.370366666667     0.370066666667     0.570150000000     0.147      
H        H      0.345500000000     0.333800000000     0.557900000000     0.147      
H        H      0.382566666667     0.666133333333     0.591650000000     0.147      
H        H      0.518800000000     0.620433333333     0.855100000000     0.147      
H        H      0.500166666667     0.602100000000     0.892400000000     0.147      
H        H      0.533300000000     0.634633333333     0.897750000000     0.147      
H        H      0.665500000000     0.524733333333     0.919950000000     0.147      
H        H      0.625633333333     0.506233333333     0.937850000000     0.147      
H        H      0.652000000000     0.602433333333     0.576600000000     0.147      
H        H      0.613433333333     0.616066666667     0.548150000000     0.147      
H        H      0.609600000000     0.579033333333     0.571650000000     0.147      
H        H      0.663200000000     0.338866666667     0.822050000000     0.147      
H        H      0.645766666667     0.639633333333     0.847050000000     0.147      
H        H      0.614333333333     0.661366666667     0.817350000000     0.147      
H        H      0.650600000000     0.542900000000     0.709400000000     0.147      
H        H      0.606000000000     0.563166666667     0.705500000000     0.147      
H        H      0.537033333333     0.463266666667     0.820150000000     0.147      
H        H      0.512166666667     0.499533333333     0.807900000000     0.147      
H        H      0.549233333333     0.500533333333     0.841650000000     0.147      
H        H      0.647866666667     0.453766666667     0.894900000000     0.147      
H        H      0.666500000000     0.435433333333     0.857600000000     0.147      
H        H      0.633366666667     0.467966666667     0.852250000000     0.147      
H        H      0.501166666667     0.358066666667     0.830050000000     0.147      
H        H      0.541033333333     0.339566666667     0.812150000000     0.147      
H        H      0.514666666667     0.435766666667     0.673400000000     0.147      
H        H      0.553233333333     0.449400000000     0.701850000000     0.147      
H        H      0.557066666667     0.412366666667     0.678350000000     0.147      
H        H      0.503466666667     0.505533333333     0.927950000000     0.147      
H        H      0.520900000000     0.472966666667     0.902950000000     0.147      
H        H      0.552333333333     0.494700000000     0.932650000000     0.147      
H        H      0.516066666667     0.376233333333     0.540600000000     0.147      
H        H      0.560666666667     0.396500000000     0.544500000000     0.147      
H        H      0.629633333333     0.629933333333     0.929850000000     0.147      
H        H      0.654500000000     0.666200000000     0.942100000000     0.147      
H        H      0.617433333333     0.333866666667     0.908350000000     0.147      
H        H      0.481200000000     0.712900000000     0.144900000000     0.147      
H        H      0.499833333333     0.731233333333     0.107600000000     0.147      
H        H      0.466700000000     0.698700000000     0.102250000000     0.147      
H        H      0.334500000000     0.808600000000     0.080050000000     0.147      
H        H      0.374366666667     0.827100000000     0.062150000000     0.147      
H        H      0.348000000000     0.730900000000     0.423400000000     0.147      
H        H      0.386566666667     0.717266666667     0.451850000000     0.147      
H        H      0.390400000000     0.754300000000     0.428350000000     0.147      
H        H      0.336800000000     0.994466666667     0.177950000000     0.147      
H        H      0.354233333333     0.693700000000     0.152950000000     0.147      
H        H      0.385666666667     0.671966666667     0.182650000000     0.147      
H        H      0.349400000000     0.790433333333     0.290600000000     0.147      
H        H      0.394000000000     0.770166666667     0.294500000000     0.147      
H        H      0.462966666667     0.870066666667     0.179850000000     0.147      
H        H      0.487833333333     0.833800000000     0.192100000000     0.147      
H        H      0.450766666667     0.832800000000     0.158350000000     0.147      
H        H      0.352133333333     0.879566666667     0.105100000000     0.147      
H        H      0.333500000000     0.897900000000     0.142400000000     0.147      
H        H      0.366633333333     0.865366666667     0.147750000000     0.147      
H        H      0.498833333333     0.975266666667     0.169950000000     0.147      
H        H      0.458966666667     0.993766666667     0.187850000000     0.147      
H        H      0.485333333333     0.897566666667     0.326600000000     0.147      
H        H      0.446766666667     0.883933333333     0.298150000000     0.147      
H        H      0.442933333333     0.920966666667     0.321650000000     0.147      
H        H      0.496533333333     0.827800000000     0.072050000000     0.147      
H        H      0.479100000000     0.860366666667     0.097050000000     0.147      
H        H      0.447666666667     0.838633333333     0.067350000000     0.147      
H        H      0.483933333333     0.957100000000     0.459400000000     0.147      
H        H      0.439333333333     0.936833333333     0.455500000000     0.147      
H        H      0.370366666667     0.703400000000     0.070150000000     0.147      
H        H      0.345500000000     0.667133333333     0.057900000000     0.147      
H        H      0.382566666667     0.999466666667     0.091650000000     0.147      
H        H      0.518800000000     0.953766666667     0.355100000000     0.147      
H        H      0.500166666667     0.935433333333     0.392400000000     0.147      
H        H      0.533300000000     0.967966666667     0.397750000000     0.147      
H        H      0.665500000000     0.858066666667     0.419950000000     0.147      
H        H      0.625633333333     0.839566666667     0.437850000000     0.147      
H        H      0.652000000000     0.935766666667     0.076600000000     0.147      
H        H      0.613433333333     0.949400000000     0.048150000000     0.147      
H        H      0.609600000000     0.912366666667     0.071650000000     0.147      
H        H      0.663200000000     0.672200000000     0.322050000000     0.147      
H        H      0.645766666667     0.972966666667     0.347050000000     0.147      
H        H      0.614333333333     0.994700000000     0.317350000000     0.147      
H        H      0.650600000000     0.876233333333     0.209400000000     0.147      
H        H      0.606000000000     0.896500000000     0.205500000000     0.147      
H        H      0.537033333333     0.796600000000     0.320150000000     0.147      
H        H      0.512166666667     0.832866666667     0.307900000000     0.147      
H        H      0.549233333333     0.833866666667     0.341650000000     0.147      
H        H      0.647866666667     0.787100000000     0.394900000000     0.147      
H        H      0.666500000000     0.768766666667     0.357600000000     0.147      
H        H      0.633366666667     0.801300000000     0.352250000000     0.147      
H        H      0.501166666667     0.691400000000     0.330050000000     0.147      
H        H      0.541033333333     0.672900000000     0.312150000000     0.147      
H        H      0.514666666667     0.769100000000     0.173400000000     0.147      
H        H      0.553233333333     0.782733333333     0.201850000000     0.147      
H        H      0.557066666667     0.745700000000     0.178350000000     0.147      
H        H      0.503466666667     0.838866666667     0.427950000000     0.147      
H        H      0.520900000000     0.806300000000     0.402950000000     0.147      
H        H      0.552333333333     0.828033333333     0.432650000000     0.147      
H        H      0.516066666667     0.709566666667     0.040600000000     0.147      
H        H      0.560666666667     0.729833333333     0.044500000000     0.147      
H        H      0.629633333333     0.963266666667     0.429850000000     0.147      
H        H      0.654500000000     0.999533333333     0.442100000000     0.147      
H        H      0.617433333333     0.667200000000     0.408350000000     0.147      
H        H      0.481200000000     0.712900000000     0.644900000000     0.147      
H        H      0.499833333333     0.731233333333     0.607600000000     0.147      
H        H      0.466700000000     0.698700000000     0.602250000000     0.147      
H        H      0.334500000000     0.808600000000     0.580050000000     0.147      
H        H      0.374366666667     0.827100000000     0.562150000000     0.147      
H        H      0.348000000000     0.730900000000     0.923400000000     0.147      
H        H      0.386566666667     0.717266666667     0.951850000000     0.147      
H        H      0.390400000000     0.754300000000     0.928350000000     0.147      
H        H      0.336800000000     0.994466666667     0.677950000000     0.147      
H        H      0.354233333333     0.693700000000     0.652950000000     0.147      
H        H      0.385666666667     0.671966666667     0.682650000000     0.147      
H        H      0.349400000000     0.790433333333     0.790600000000     0.147      
H        H      0.394000000000     0.770166666667     0.794500000000     0.147      
H        H      0.462966666667     0.870066666667     0.679850000000     0.147      
H        H      0.487833333333     0.833800000000     0.692100000000     0.147      
H        H      0.450766666667     0.832800000000     0.658350000000     0.147      
H        H      0.352133333333     0.879566666667     0.605100000000     0.147      
H        H      0.333500000000     0.897900000000     0.642400000000     0.147      
H        H      0.366633333333     0.865366666667     0.647750000000     0.147      
H        H      0.498833333333     0.975266666667     0.669950000000     0.147      
H        H      0.458966666667     0.993766666667     0.687850000000     0.147      
H        H      0.485333333333     0.897566666667     0.826600000000     0.147      
H        H      0.446766666667     0.883933333333     0.798150000000     0.147      
H        H      0.442933333333     0.920966666667     0.821650000000     0.147      
H        H      0.496533333333     0.827800000000     0.572050000000     0.147      
H        H      0.479100000000     0.860366666667     0.597050000000     0.147      
H        H      0.447666666667     0.838633333333     0.567350000000     0.147      
H        H      0.483933333333     0.957100000000     0.959400000000     0.147      
H        H      0.439333333333     0.936833333333     0.955500000000     0.147      
H        H      0.370366666667     0.703400000000     0.570150000000     0.147      
H        H      0.345500000000     0.667133333333     0.557900000000     0.147      
H        H      0.382566666667     0.999466666667     0.591650000000     0.147      
H        H      0.518800000000     0.953766666667     0.855100000000     0.147      
H        H      0.500166666667     0.935433333333     0.892400000000     0.147      
H        H      0.533300000000     0.967966666667     0.897750000000     0.147      
H        H      0.665500000000     0.858066666667     0.919950000000     0.147      
H        H      0.625633333333     0.839566666667     0.937850000000     0.147      
H        H      0.652000000000     0.935766666667     0.576600000000     0.147      
H        H      0.613433333333     0.949400000000     0.548150000000     0.147      
H        H      0.609600000000     0.912366666667     0.571650000000     0.147      
H        H      0.663200000000     0.672200000000     0.822050000000     0.147      
H        H      0.645766666667     0.972966666667     0.847050000000     0.147      
H        H      0.614333333333     0.994700000000     0.817350000000     0.147      
H        H      0.650600000000     0.876233333333     0.709400000000     0.147      
H        H      0.606000000000     0.896500000000     0.705500000000     0.147      
H        H      0.537033333333     0.796600000000     0.820150000000     0.147      
H        H      0.512166666667     0.832866666667     0.807900000000     0.147      
H        H      0.549233333333     0.833866666667     0.841650000000     0.147      
H        H      0.647866666667     0.787100000000     0.894900000000     0.147      
H        H      0.666500000000     0.768766666667     0.857600000000     0.147      
H        H      0.633366666667     0.801300000000     0.852250000000     0.147      
H        H      0.501166666667     0.691400000000     0.830050000000     0.147      
H        H      0.541033333333     0.672900000000     0.812150000000     0.147      
H        H      0.514666666667     0.769100000000     0.673400000000     0.147      
H        H      0.553233333333     0.782733333333     0.701850000000     0.147      
H        H      0.557066666667     0.745700000000     0.678350000000     0.147      
H        H      0.503466666667     0.838866666667     0.927950000000     0.147      
H        H      0.520900000000     0.806300000000     0.902950000000     0.147      
H        H      0.552333333333     0.828033333333     0.932650000000     0.147      
H        H      0.516066666667     0.709566666667     0.540600000000     0.147      
H        H      0.560666666667     0.729833333333     0.544500000000     0.147      
H        H      0.629633333333     0.963266666667     0.929850000000     0.147      
H        H      0.654500000000     0.999533333333     0.942100000000     0.147      
H        H      0.617433333333     0.667200000000     0.908350000000     0.147      
H        H      0.814533333333     0.046233333333     0.144900000000     0.147      
H        H      0.833166666667     0.064566666667     0.107600000000     0.147      
H        H      0.800033333333     0.032033333333     0.102250000000     0.147      
H        H      0.667833333333     0.141933333333     0.080050000000     0.147      
H        H      0.707700000000     0.160433333333     0.062150000000     0.147      
H        H      0.681333333333     0.064233333333     0.423400000000     0.147      
H        H      0.719900000000     0.050600000000     0.451850000000     0.147      
H        H      0.723733333333     0.087633333333     0.428350000000     0.147      
H        H      0.670133333333     0.327800000000     0.177950000000     0.147      
H        H      0.687566666667     0.027033333333     0.152950000000     0.147      
H        H      0.719000000000     0.005300000000     0.182650000000     0.147      
H        H      0.682733333333     0.123766666667     0.290600000000     0.147      
H        H      0.727333333333     0.103500000000     0.294500000000     0.147      
H        H      0.796300000000     0.203400000000     0.179850000000     0.147      
H        H      0.821166666667     0.167133333333     0.192100000000     0.147      
H        H      0.784100000000     0.166133333333     0.158350000000     0.147      
H        H      0.685466666667     0.212900000000     0.105100000000     0.147      
H        H      0.666833333333     0.231233333333     0.142400000000     0.147      
H        H      0.699966666667     0.198700000000     0.147750000000     0.147      
H        H      0.832166666667     0.308600000000     0.169950000000     0.147      
H        H      0.792300000000     0.327100000000     0.187850000000     0.147      
H        H      0.818666666667     0.230900000000     0.326600000000     0.147      
H        H      0.780100000000     0.217266666667     0.298150000000     0.147      
H        H      0.776266666667     0.254300000000     0.321650000000     0.147      
H        H      0.829866666667     0.161133333333     0.072050000000     0.147      
H        H      0.812433333333     0.193700000000     0.097050000000     0.147      
H        H      0.781000000000     0.171966666667     0.067350000000     0.147      
H        H      0.817266666667     0.290433333333     0.459400000000     0.147      
H        H      0.772666666667     0.270166666667     0.455500000000     0.147      
H        H      0.703700000000     0.036733333333     0.070150000000     0.147      
H        H      0.678833333333     0.000466666667     0.057900000000     0.147      
H        H      0.715900000000     0.332800000000     0.091650000000     0.147      
H        H      0.852133333333     0.287100000000     0.355100000000     0.147      
H        H      0.833500000000     0.268766666667     0.392400000000     0.147      
H        H      0.866633333333     0.301300000000     0.397750000000     0.147      
H        H      0.998833333333     0.191400000000     0.419950000000     0.147      
H        H      0.958966666667     0.172900000000     0.437850000000     0.147      
H        H      0.985333333333     0.269100000000     0.076600000000     0.147      
H        H      0.946766666667     0.282733333333     0.048150000000     0.147      
H        H      0.942933333333     0.245700000000     0.071650000000     0.147      
H        H      0.996533333333     0.005533333333     0.322050000000     0.147      
H        H      0.979100000000     0.306300000000     0.347050000000     0.147      
H        H      0.947666666667     0.328033333333     0.317350000000     0.147      
H        H      0.983933333333     0.209566666667     0.209400000000     0.147      
H        H      0.939333333333     0.229833333333     0.205500000000     0.147      
H        H      0.870366666667     0.129933333333     0.320150000000     0.147      
H        H      0.845500000000     0.166200000000     0.307900000000     0.147      
H        H      0.882566666667     0.167200000000     0.341650000000     0.147      
H        H      0.981200000000     0.120433333333     0.394900000000     0.147      
H        H      0.999833333333     0.102100000000     0.357600000000     0.147      
H        H      0.966700000000     0.134633333333     0.352250000000     0.147      
H        H      0.834500000000     0.024733333333     0.330050000000     0.147      
H        H      0.874366666667     0.006233333333     0.312150000000     0.147      
H        H      0.848000000000     0.102433333333     0.173400000000     0.147      
H        H      0.886566666667     0.116066666667     0.201850000000     0.147      
H        H      0.890400000000     0.079033333333     0.178350000000     0.147      
H        H      0.836800000000     0.172200000000     0.427950000000     0.147      
H        H      0.854233333333     0.139633333333     0.402950000000     0.147      
H        H      0.885666666667     0.161366666667     0.432650000000     0.147      
H        H      0.849400000000     0.042900000000     0.040600000000     0.147      
H        H      0.894000000000     0.063166666667     0.044500000000     0.147      
H        H      0.962966666667     0.296600000000     0.429850000000     0.147      
H        H      0.987833333333     0.332866666667     0.442100000000     0.147      
H        H      0.950766666667     0.000533333333     0.408350000000     0.147      
H        H      0.814533333333     0.046233333333     0.644900000000     0.147      
H        H      0.833166666667     0.064566666667     0.607600000000     0.147      
H        H      0.800033333333     0.032033333333     0.602250000000     0.147      
H        H      0.667833333333     0.141933333333     0.580050000000     0.147      
H        H      0.707700000000     0.160433333333     0.562150000000     0.147      
H        H      0.681333333333     0.064233333333     0.923400000000     0.147      
H        H      0.719900000000     0.050600000000     0.951850000000     0.147      
H        H      0.723733333333     0.087633333333     0.928350000000     0.147      
H        H      0.670133333333     0.327800000000     0.677950000000     0.147      
H        H      0.687566666667     0.027033333333     0.652950000000     0.147      
H        H      0.719000000000     0.005300000000     0.682650000000     0.147      
H        H      0.682733333333     0.123766666667     0.790600000000     0.147      
H        H      0.727333333333     0.103500000000     0.794500000000     0.147      
H        H      0.796300000000     0.203400000000     0.679850000000     0.147      
H        H      0.821166666667     0.167133333333     0.692100000000     0.147      
H        H      0.784100000000     0.166133333333     0.658350000000     0.147      
H        H      0.685466666667     0.212900000000     0.605100000000     0.147      
H        H      0.666833333333     0.231233333333     0.642400000000     0.147      
H        H      0.699966666667     0.198700000000     0.647750000000     0.147      
H        H      0.832166666667     0.308600000000     0.669950000000     0.147      
H        H      0.792300000000     0.327100000000     0.687850000000     0.147      
H        H      0.818666666667     0.230900000000     0.826600000000     0.147      
H        H      0.780100000000     0.217266666667     0.798150000000     0.147      
H        H      0.776266666667     0.254300000000     0.821650000000     0.147      
H        H      0.829866666667     0.161133333333     0.572050000000     0.147      
H        H      0.812433333333     0.193700000000     0.597050000000     0.147      
H        H      0.781000000000     0.171966666667     0.567350000000     0.147      
H        H      0.817266666667     0.290433333333     0.959400000000     0.147      
H        H      0.772666666667     0.270166666667     0.955500000000     0.147      
H        H      0.703700000000     0.036733333333     0.570150000000     0.147      
H        H      0.678833333333     0.000466666667     0.557900000000     0.147      
H        H      0.715900000000     0.332800000000     0.591650000000     0.147      
H        H      0.852133333333     0.287100000000     0.855100000000     0.147      
H        H      0.833500000000     0.268766666667     0.892400000000     0.147      
H        H      0.866633333333     0.301300000000     0.897750000000     0.147      
H        H      0.998833333333     0.191400000000     0.919950000000     0.147      
H        H      0.958966666667     0.172900000000     0.937850000000     0.147      
H        H      0.985333333333     0.269100000000     0.576600000000     0.147      
H        H      0.946766666667     0.282733333333     0.548150000000     0.147      
H        H      0.942933333333     0.245700000000     0.571650000000     0.147      
H        H      0.996533333333     0.005533333333     0.822050000000     0.147      
H        H      0.979100000000     0.306300000000     0.847050000000     0.147      
H        H      0.947666666667     0.328033333333     0.817350000000     0.147      
H        H      0.983933333333     0.209566666667     0.709400000000     0.147      
H        H      0.939333333333     0.229833333333     0.705500000000     0.147      
H        H      0.870366666667     0.129933333333     0.820150000000     0.147      
H        H      0.845500000000     0.166200000000     0.807900000000     0.147      
H        H      0.882566666667     0.167200000000     0.841650000000     0.147      
H        H      0.981200000000     0.120433333333     0.894900000000     0.147      
H        H      0.999833333333     0.102100000000     0.857600000000     0.147      
H        H      0.966700000000     0.134633333333     0.852250000000     0.147      
H        H      0.834500000000     0.024733333333     0.830050000000     0.147      
H        H      0.874366666667     0.006233333333     0.812150000000     0.147      
H        H      0.848000000000     0.102433333333     0.673400000000     0.147      
H        H      0.886566666667     0.116066666667     0.701850000000     0.147      
H        H      0.890400000000     0.079033333333     0.678350000000     0.147      
H        H      0.836800000000     0.172200000000     0.927950000000     0.147      
H        H      0.854233333333     0.139633333333     0.902950000000     0.147      
H        H      0.885666666667     0.161366666667     0.932650000000     0.147      
H        H      0.849400000000     0.042900000000     0.540600000000     0.147      
H        H      0.894000000000     0.063166666667     0.544500000000     0.147      
H        H      0.962966666667     0.296600000000     0.929850000000     0.147      
H        H      0.987833333333     0.332866666667     0.942100000000     0.147      
H        H      0.950766666667     0.000533333333     0.908350000000     0.147      
H        H      0.814533333333     0.379566666667     0.144900000000     0.147      
H        H      0.833166666667     0.397900000000     0.107600000000     0.147      
H        H      0.800033333333     0.365366666667     0.102250000000     0.147      
H        H      0.667833333333     0.475266666667     0.080050000000     0.147      
H        H      0.707700000000     0.493766666667     0.062150000000     0.147      
H        H      0.681333333333     0.397566666667     0.423400000000     0.147      
H        H      0.719900000000     0.383933333333     0.451850000000     0.147      
H        H      0.723733333333     0.420966666667     0.428350000000     0.147      
H        H      0.670133333333     0.661133333333     0.177950000000     0.147      
H        H      0.687566666667     0.360366666667     0.152950000000     0.147      
H        H      0.719000000000     0.338633333333     0.182650000000     0.147      
H        H      0.682733333333     0.457100000000     0.290600000000     0.147      
H        H      0.727333333333     0.436833333333     0.294500000000     0.147      
H        H      0.796300000000     0.536733333333     0.179850000000     0.147      
H        H      0.821166666667     0.500466666667     0.192100000000     0.147      
H        H      0.784100000000     0.499466666667     0.158350000000     0.147      
H        H      0.685466666667     0.546233333333     0.105100000000     0.147      
H        H      0.666833333333     0.564566666667     0.142400000000     0.147      
H        H      0.699966666667     0.532033333333     0.147750000000     0.147      
H        H      0.832166666667     0.641933333333     0.169950000000     0.147      
H        H      0.792300000000     0.660433333333     0.187850000000     0.147      
H        H      0.818666666667     0.564233333333     0.326600000000     0.147      
H        H      0.780100000000     0.550600000000     0.298150000000     0.147      
H        H      0.776266666667     0.587633333333     0.321650000000     0.147      
H        H      0.829866666667     0.494466666667     0.072050000000     0.147      
H        H      0.812433333333     0.527033333333     0.097050000000     0.147      
H        H      0.781000000000     0.505300000000     0.067350000000     0.147      
H        H      0.817266666667     0.623766666667     0.459400000000     0.147      
H        H      0.772666666667     0.603500000000     0.455500000000     0.147      
H        H      0.703700000000     0.370066666667     0.070150000000     0.147      
H        H      0.678833333333     0.333800000000     0.057900000000     0.147      
H        H      0.715900000000     0.666133333333     0.091650000000     0.147      
H        H      0.852133333333     0.620433333333     0.355100000000     0.147      
H        H      0.833500000000     0.602100000000     0.392400000000     0.147      
H        H      0.866633333333     0.634633333333     0.397750000000     0.147      
H        H      0.998833333333     0.524733333333     0.419950000000     0.147      
H        H      0.958966666667     0.506233333333     0.437850000000     0.147      
H        H      0.985333333333     0.602433333333     0.076600000000     0.147      
H        H      0.946766666667     0.616066666667     0.048150000000     0.147      
H        H      0.942933333333     0.579033333333     0.071650000000     0.147      
H        H      0.996533333333     0.338866666667     0.322050000000     0.147      
H        H      0.979100000000     0.639633333333     0.347050000000     0.147      
H        H      0.947666666667     0.661366666667     0.317350000000     0.147      
H        H      0.983933333333     0.542900000000     0.209400000000     0.147      
H        H      0.939333333333     0.563166666667     0.205500000000     0.147      
H        H      0.870366666667     0.463266666667     0.320150000000     0.147      
H        H      0.845500000000     0.499533333333     0.307900000000     0.147      
H        H      0.882566666667     0.500533333333     0.341650000000     0.147      
H        H      0.981200000000     0.453766666667     0.394900000000     0.147      
H        H      0.999833333333     0.435433333333     0.357600000000     0.147      
H        H      0.966700000000     0.467966666667     0.352250000000     0.147      
H        H      0.834500000000     0.358066666667     0.330050000000     0.147      
H        H      0.874366666667     0.339566666667     0.312150000000     0.147      
H        H      0.848000000000     0.435766666667     0.173400000000     0.147      
H        H      0.886566666667     0.449400000000     0.201850000000     0.147      
H        H      0.890400000000     0.412366666667     0.178350000000     0.147      
H        H      0.836800000000     0.505533333333     0.427950000000     0.147      
H        H      0.854233333333     0.472966666667     0.402950000000     0.147      
H        H      0.885666666667     0.494700000000     0.432650000000     0.147      
H        H      0.849400000000     0.376233333333     0.040600000000     0.147      
H        H      0.894000000000     0.396500000000     0.044500000000     0.147      
H        H      0.962966666667     0.629933333333     0.429850000000     0.147      
H        H      0.987833333333     0.666200000000     0.442100000000     0.147      
H        H      0.950766666667     0.333866666667     0.408350000000     0.147      
H        H      0.814533333333     0.379566666667     0.644900000000     0.147      
H        H      0.833166666667     0.397900000000     0.607600000000     0.147      
H        H      0.800033333333     0.365366666667     0.602250000000     0.147      
H        H      0.667833333333     0.475266666667     0.580050000000     0.147      
H        H      0.707700000000     0.493766666667     0.562150000000     0.147      
H        H      0.681333333333     0.397566666667     0.923400000000     0.147      
H        H      0.719900000000     0.383933333333     0.951850000000     0.147      
H        H      0.723733333333     0.420966666667     0.928350000000     0.147      
H        H      0.670133333333     0.661133333333     0.677950000000     0.147      
H        H      0.687566666667     0.360366666667     0.652950000000     0.147      
H        H      0.719000000000     0.338633333333     0.682650000000     0.147      
H        H      0.682733333333     0.457100000000     0.790600000000     0.147      
H        H      0.727333333333     0.436833333333     0.794500000000     0.147      
H        H      0.796300000000     0.536733333333     0.679850000000     0.147      
H        H      0.821166666667     0.500466666667     0.692100000000     0.147      
H        H      0.784100000000     0.499466666667     0.658350000000     0.147      
H        H      0.685466666667     0.546233333333     0.605100000000     0.147      
H        H      0.666833333333     0.564566666667     0.642400000000     0.147      
H        H      0.699966666667     0.532033333333     0.647750000000     0.147      
H        H      0.832166666667     0.641933333333     0.669950000000     0.147      
H        H      0.792300000000     0.660433333333     0.687850000000     0.147      
H        H      0.818666666667     0.564233333333     0.826600000000     0.147      
H        H      0.780100000000     0.550600000000     0.798150000000     0.147      
H        H      0.776266666667     0.587633333333     0.821650000000     0.147      
H        H      0.829866666667     0.494466666667     0.572050000000     0.147      
H        H      0.812433333333     0.527033333333     0.597050000000     0.147      
H        H      0.781000000000     0.505300000000     0.567350000000     0.147      
H        H      0.817266666667     0.623766666667     0.959400000000     0.147      
H        H      0.772666666667     0.603500000000     0.955500000000     0.147      
H        H      0.703700000000     0.370066666667     0.570150000000     0.147      
H        H      0.678833333333     0.333800000000     0.557900000000     0.147      
H        H      0.715900000000     0.666133333333     0.591650000000     0.147      
H        H      0.852133333333     0.620433333333     0.855100000000     0.147      
H        H      0.833500000000     0.602100000000     0.892400000000     0.147      
H        H      0.866633333333     0.634633333333     0.897750000000     0.147      
H        H      0.998833333333     0.524733333333     0.919950000000     0.147      
H        H      0.958966666667     0.506233333333     0.937850000000     0.147      
H        H      0.985333333333     0.602433333333     0.576600000000     0.147      
H        H      0.946766666667     0.616066666667     0.548150000000     0.147      
H        H      0.942933333333     0.579033333333     0.571650000000     0.147      
H        H      0.996533333333     0.338866666667     0.822050000000     0.147      
H        H      0.979100000000     0.639633333333     0.847050000000     0.147      
H        H      0.947666666667     0.661366666667     0.817350000000     0.147      
H        H      0.983933333333     0.542900000000     0.709400000000     0.147      
H        H      0.939333333333     0.563166666667     0.705500000000     0.147      
H        H      0.870366666667     0.463266666667     0.820150000000     0.147      
H        H      0.845500000000     0.499533333333     0.807900000000     0.147      
H        H      0.882566666667     0.500533333333     0.841650000000     0.147      
H        H      0.981200000000     0.453766666667     0.894900000000     0.147      
H        H      0.999833333333     0.435433333333     0.857600000000     0.147      
H        H      0.966700000000     0.467966666667     0.852250000000     0.147      
H        H      0.834500000000     0.358066666667     0.830050000000     0.147      
H        H      0.874366666667     0.339566666667     0.812150000000     0.147      
H        H      0.848000000000     0.435766666667     0.673400000000     0.147      
H        H      0.886566666667     0.449400000000     0.701850000000     0.147      
H        H      0.890400000000     0.412366666667     0.678350000000     0.147      
H        H      0.836800000000     0.505533333333     0.927950000000     0.147      
H        H      0.854233333333     0.472966666667     0.902950000000     0.147      
H        H      0.885666666667     0.494700000000     0.932650000000     0.147      
H        H      0.849400000000     0.376233333333     0.540600000000     0.147      
H        H      0.894000000000     0.396500000000     0.544500000000     0.147      
H        H      0.962966666667     0.629933333333     0.929850000000     0.147      
H        H      0.987833333333     0.666200000000     0.942100000000     0.147      
H        H      0.950766666667     0.333866666667     0.908350000000     0.147      
H        H      0.814533333333     0.712900000000     0.144900000000     0.147      
H        H      0.833166666667     0.731233333333     0.107600000000     0.147      
H        H      0.800033333333     0.698700000000     0.102250000000     0.147      
H        H      0.667833333333     0.808600000000     0.080050000000     0.147      
H        H      0.707700000000     0.827100000000     0.062150000000     0.147      
H        H      0.681333333333     0.730900000000     0.423400000000     0.147      
H        H      0.719900000000     0.717266666667     0.451850000000     0.147      
H        H      0.723733333333     0.754300000000     0.428350000000     0.147      
H        H      0.670133333333     0.994466666667     0.177950000000     0.147      
H        H      0.687566666667     0.693700000000     0.152950000000     0.147      
H        H      0.719000000000     0.671966666667     0.182650000000     0.147      
H        H      0.682733333333     0.790433333333     0.290600000000     0.147      
H        H      0.727333333333     0.770166666667     0.294500000000     0.147      
H        H      0.796300000000     0.870066666667     0.179850000000     0.147      
H        H      0.821166666667     0.833800000000     0.192100000000     0.147      
H        H      0.784100000000     0.832800000000     0.158350000000     0.147      
H        H      0.685466666667     0.879566666667     0.105100000000     0.147      
H        H      0.666833333333     0.897900000000     0.142400000000     0.147      
H        H      0.699966666667     0.865366666667     0.147750000000     0.147      
H        H      0.832166666667     0.975266666667     0.169950000000     0.147      
H        H      0.792300000000     0.993766666667     0.187850000000     0.147      
H        H      0.818666666667     0.897566666667     0.326600000000     0.147      
H        H      0.780100000000     0.883933333333     0.298150000000     0.147      
H        H      0.776266666667     0.920966666667     0.321650000000     0.147      
H        H      0.829866666667     0.827800000000     0.072050000000     0.147      
H        H      0.812433333333     0.860366666667     0.097050000000     0.147      
H        H      0.781000000000     0.838633333333     0.067350000000     0.147      
H        H      0.817266666667     0.957100000000     0.459400000000     0.147      
H        H      0.772666666667     0.936833333333     0.455500000000     0.147      
H        H      0.703700000000     0.703400000000     0.070150000000     0.147      
H        H      0.678833333333     0.667133333333     0.057900000000     0.147      
H        H      0.715900000000     0.999466666667     0.091650000000     0.147      
H        H      0.852133333333     0.953766666667     0.355100000000     0.147      
H        H      0.833500000000     0.935433333333     0.392400000000     0.147      
H        H      0.866633333333     0.967966666667     0.397750000000     0.147      
H        H      0.998833333333     0.858066666667     0.419950000000     0.147      
H        H      0.958966666667     0.839566666667     0.437850000000     0.147      
H        H      0.985333333333     0.935766666667     0.076600000000     0.147      
H        H      0.946766666667     0.949400000000     0.048150000000     0.147      
H        H      0.942933333333     0.912366666667     0.071650000000     0.147      
H        H      0.996533333333     0.672200000000     0.322050000000     0.147      
H        H      0.979100000000     0.972966666667     0.347050000000     0.147      
H        H      0.947666666667     0.994700000000     0.317350000000     0.147      
H        H      0.983933333333     0.876233333333     0.209400000000     0.147      
H        H      0.939333333333     0.896500000000     0.205500000000     0.147      
H        H      0.870366666667     0.796600000000     0.320150000000     0.147      
H        H      0.845500000000     0.832866666667     0.307900000000     0.147      
H        H      0.882566666667     0.833866666667     0.341650000000     0.147      
H        H      0.981200000000     0.787100000000     0.394900000000     0.147      
H        H      0.999833333333     0.768766666667     0.357600000000     0.147      
H        H      0.966700000000     0.801300000000     0.352250000000     0.147      
H        H      0.834500000000     0.691400000000     0.330050000000     0.147      
H        H      0.874366666667     0.672900000000     0.312150000000     0.147      
H        H      0.848000000000     0.769100000000     0.173400000000     0.147      
H        H      0.886566666667     0.782733333333     0.201850000000     0.147      
H        H      0.890400000000     0.745700000000     0.178350000000     0.147      
H        H      0.836800000000     0.838866666667     0.427950000000     0.147      
H        H      0.854233333333     0.806300000000     0.402950000000     0.147      
H        H      0.885666666667     0.828033333333     0.432650000000     0.147      
H        H      0.849400000000     0.709566666667     0.040600000000     0.147      
H        H      0.894000000000     0.729833333333     0.044500000000     0.147      
H        H      0.962966666667     0.963266666667     0.429850000000     0.147      
H        H      0.987833333333     0.999533333333     0.442100000000     0.147      
H        H      0.950766666667     0.667200000000     0.408350000000     0.147      
H        H      0.814533333333     0.712900000000     0.644900000000     0.147      
H        H      0.833166666667     0.731233333333     0.607600000000     0.147      
H        H      0.800033333333     0.698700000000     0.602250000000     0.147      
H        H      0.667833333333     0.808600000000     0.580050000000     0.147      
H        H      0.707700000000     0.827100000000     0.562150000000     0.147      
H        H      0.681333333333     0.730900000000     0.923400000000     0.147      
H        H      0.719900000000     0.717266666667     0.951850000000     0.147      
H        H      0.723733333333     0.754300000000     0.928350000000     0.147      
H        H      0.670133333333     0.994466666667     0.677950000000     0.147      
H        H      0.687566666667     0.693700000000     0.652950000000     0.147      
H        H      0.719000000000     0.671966666667     0.682650000000     0.147      
H        H      0.682733333333     0.790433333333     0.790600000000     0.147      
H        H      0.727333333333     0.770166666667     0.794500000000     0.147      
H        H      0.796300000000     0.870066666667     0.679850000000     0.147      
H        H      0.821166666667     0.833800000000     0.692100000000     0.147      
H        H      0.784100000000     0.832800000000     0.658350000000     0.147      
H        H      0.685466666667     0.879566666667     0.605100000000     0.147      
H        H      0.666833333333     0.897900000000     0.642400000000     0.147      
H        H      0.699966666667     0.865366666667     0.647750000000     0.147      
H        H      0.832166666667     0.975266666667     0.669950000000     0.147      
H        H      0.792300000000     0.993766666667     0.687850000000     0.147      
H        H      0.818666666667     0.897566666667     0.826600000000     0.147      
H        H      0.780100000000     0.883933333333     0.798150000000     0.147      
H        H      0.776266666667     0.920966666667     0.821650000000     0.147      
H        H      0.829866666667     0.827800000000     0.572050000000     0.147      
H        H      0.812433333333     0.860366666667     0.597050000000     0.147      
H        H      0.781000000000     0.838633333333     0.567350000000     0.147      
H        H      0.817266666667     0.957100000000     0.959400000000     0.147      
H        H      0.772666666667     0.936833333333     0.955500000000     0.147      
H        H      0.703700000000     0.703400000000     0.570150000000     0.147      
H        H      0.678833333333     0.667133333333     0.557900000000     0.147      
H        H      0.715900000000     0.999466666667     0.591650000000     0.147      
H        H      0.852133333333     0.953766666667     0.855100000000     0.147      
H        H      0.833500000000     0.935433333333     0.892400000000     0.147      
H        H      0.866633333333     0.967966666667     0.897750000000     0.147      
H        H      0.998833333333     0.858066666667     0.919950000000     0.147      
H        H      0.958966666667     0.839566666667     0.937850000000     0.147      
H        H      0.985333333333     0.935766666667     0.576600000000     0.147      
H        H      0.946766666667     0.949400000000     0.548150000000     0.147      
H        H      0.942933333333     0.912366666667     0.571650000000     0.147      
H        H      0.996533333333     0.672200000000     0.822050000000     0.147      
H        H      0.979100000000     0.972966666667     0.847050000000     0.147      
H        H      0.947666666667     0.994700000000     0.817350000000     0.147      
H        H      0.983933333333     0.876233333333     0.709400000000     0.147      
H        H      0.939333333333     0.896500000000     0.705500000000     0.147      
H        H      0.870366666667     0.796600000000     0.820150000000     0.147      
H        H      0.845500000000     0.832866666667     0.807900000000     0.147      
H        H      0.882566666667     0.833866666667     0.841650000000     0.147      
H        H      0.981200000000     0.787100000000     0.894900000000     0.147      
H        H      0.999833333333     0.768766666667     0.857600000000     0.147      
H        H      0.966700000000     0.801300000000     0.852250000000     0.147      
H        H      0.834500000000     0.691400000000     0.830050000000     0.147      
H        H      0.874366666667     0.672900000000     0.812150000000     0.147      
H        H      0.848000000000     0.769100000000     0.673400000000     0.147      
H        H      0.886566666667     0.782733333333     0.701850000000     0.147      
H        H      0.890400000000     0.745700000000     0.678350000000     0.147      
H        H      0.836800000000     0.838866666667     0.927950000000     0.147      
H        H      0.854233333333     0.806300000000     0.902950000000     0.147      
H        H      0.885666666667     0.828033333333     0.932650000000     0.147      
H        H      0.849400000000     0.709566666667     0.540600000000     0.147      
H        H      0.894000000000     0.729833333333     0.544500000000     0.147      
H        H      0.962966666667     0.963266666667     0.929850000000     0.147      
H        H      0.987833333333     0.999533333333     0.942100000000     0.147      
H        H      0.950766666667     0.667200000000     0.908350000000     0.147      
N        N      0.041866666667     0.066106666667     0.223605000000     0.093      
N        N      0.311866666667     0.040930000000     0.226625000000     0.093      
N        N      0.316033333333     0.069020000000     0.253440000000     0.093      
N        N      0.086566666667     0.136280000000     0.225540000000     0.093      
N        N      0.049433333333     0.177296666667     0.256680000000     0.093      
N        N      0.074133333333     0.194653333333     0.230375000000     0.093      
N        N      0.313666666667     0.101903333333     0.476580000000     0.093      
N        N      0.310566666667     0.119863333333     0.011805000000     0.093      
N        N      0.043766666667     0.102670000000     0.006255000000     0.093      
N        N      0.088500000000     0.093720000000     0.082355000000     0.093      
N        N      0.054500000000     0.115216666667     0.131960000000     0.093      
N        N      0.086833333333     0.092236666667     0.146015000000     0.093      
N        N      0.124800000000     0.232773333333     0.026395000000     0.093      
N        N      0.188133333333     0.207596666667     0.023375000000     0.093      
N        N      0.183966666667     0.235686666667     0.496560000000     0.093      
N        N      0.080100000000     0.302946666667     0.024460000000     0.093      
N        N      0.117233333333     0.010630000000     0.493320000000     0.093      
N        N      0.092533333333     0.027986666667     0.019625000000     0.093      
N        N      0.186333333333     0.268570000000     0.273420000000     0.093      
N        N      0.189433333333     0.286530000000     0.238195000000     0.093      
N        N      0.122900000000     0.269336666667     0.243745000000     0.093      
N        N      0.078166666667     0.260386666667     0.167645000000     0.093      
N        N      0.112166666667     0.281883333333     0.118040000000     0.093      
N        N      0.079833333333     0.258903333333     0.103985000000     0.093      
N        N      0.291466666667     0.267226666667     0.276395000000     0.093      
N        N      0.021466666667     0.292403333333     0.273375000000     0.093      
N        N      0.017300000000     0.264313333333     0.246560000000     0.093      
N        N      0.246766666667     0.197053333333     0.274460000000     0.093      
N        N      0.283900000000     0.156036666667     0.243320000000     0.093      
N        N      0.259200000000     0.138680000000     0.269625000000     0.093      
N        N      0.019666666667     0.231430000000     0.023420000000     0.093      
N        N      0.022766666667     0.213470000000     0.488195000000     0.093      
N        N      0.289566666667     0.230663333333     0.493745000000     0.093      
N        N      0.244833333333     0.239613333333     0.417645000000     0.093      
N        N      0.278833333333     0.218116666667     0.368040000000     0.093      
N        N      0.246500000000     0.241096666667     0.353985000000     0.093      
N        N      0.208533333333     0.100560000000     0.473605000000     0.093      
N        N      0.145200000000     0.125736666667     0.476625000000     0.093      
N        N      0.149366666667     0.097646666667     0.003440000000     0.093      
N        N      0.253233333333     0.030386666667     0.475540000000     0.093      
N        N      0.216100000000     0.322703333333     0.006680000000     0.093      
N        N      0.240800000000     0.305346666667     0.480375000000     0.093      
N        N      0.147000000000     0.064763333333     0.226580000000     0.093      
N        N      0.143900000000     0.046803333333     0.261805000000     0.093      
N        N      0.210433333333     0.063996666667     0.256255000000     0.093      
N        N      0.255166666667     0.072946666667     0.332355000000     0.093      
N        N      0.221166666667     0.051450000000     0.381960000000     0.093      
N        N      0.253500000000     0.074430000000     0.396015000000     0.093      
N        N      0.041866666667     0.066106666667     0.723605000000     0.093      
N        N      0.311866666667     0.040930000000     0.726625000000     0.093      
N        N      0.316033333333     0.069020000000     0.753440000000     0.093      
N        N      0.086566666667     0.136280000000     0.725540000000     0.093      
N        N      0.049433333333     0.177296666667     0.756680000000     0.093      
N        N      0.074133333333     0.194653333333     0.730375000000     0.093      
N        N      0.313666666667     0.101903333333     0.976580000000     0.093      
N        N      0.310566666667     0.119863333333     0.511805000000     0.093      
N        N      0.043766666667     0.102670000000     0.506255000000     0.093      
N        N      0.088500000000     0.093720000000     0.582355000000     0.093      
N        N      0.054500000000     0.115216666667     0.631960000000     0.093      
N        N      0.086833333333     0.092236666667     0.646015000000     0.093      
N        N      0.124800000000     0.232773333333     0.526395000000     0.093      
N        N      0.188133333333     0.207596666667     0.523375000000     0.093      
N        N      0.183966666667     0.235686666667     0.996560000000     0.093      
N        N      0.080100000000     0.302946666667     0.524460000000     0.093      
N        N      0.117233333333     0.010630000000     0.993320000000     0.093      
N        N      0.092533333333     0.027986666667     0.519625000000     0.093      
N        N      0.186333333333     0.268570000000     0.773420000000     0.093      
N        N      0.189433333333     0.286530000000     0.738195000000     0.093      
N        N      0.122900000000     0.269336666667     0.743745000000     0.093      
N        N      0.078166666667     0.260386666667     0.667645000000     0.093      
N        N      0.112166666667     0.281883333333     0.618040000000     0.093      
N        N      0.079833333333     0.258903333333     0.603985000000     0.093      
N        N      0.291466666667     0.267226666667     0.776395000000     0.093      
N        N      0.021466666667     0.292403333333     0.773375000000     0.093      
N        N      0.017300000000     0.264313333333     0.746560000000     0.093      
N        N      0.246766666667     0.197053333333     0.774460000000     0.093      
N        N      0.283900000000     0.156036666667     0.743320000000     0.093      
N        N      0.259200000000     0.138680000000     0.769625000000     0.093      
N        N      0.019666666667     0.231430000000     0.523420000000     0.093      
N        N      0.022766666667     0.213470000000     0.988195000000     0.093      
N        N      0.289566666667     0.230663333333     0.993745000000     0.093      
N        N      0.244833333333     0.239613333333     0.917645000000     0.093      
N        N      0.278833333333     0.218116666667     0.868040000000     0.093      
N        N      0.246500000000     0.241096666667     0.853985000000     0.093      
N        N      0.208533333333     0.100560000000     0.973605000000     0.093      
N        N      0.145200000000     0.125736666667     0.976625000000     0.093      
N        N      0.149366666667     0.097646666667     0.503440000000     0.093      
N        N      0.253233333333     0.030386666667     0.975540000000     0.093      
N        N      0.216100000000     0.322703333333     0.506680000000     0.093      
N        N      0.240800000000     0.305346666667     0.980375000000     0.093      
N        N      0.147000000000     0.064763333333     0.726580000000     0.093      
N        N      0.143900000000     0.046803333333     0.761805000000     0.093      
N        N      0.210433333333     0.063996666667     0.756255000000     0.093      
N        N      0.255166666667     0.072946666667     0.832355000000     0.093      
N        N      0.221166666667     0.051450000000     0.881960000000     0.093      
N        N      0.253500000000     0.074430000000     0.896015000000     0.093      
N        N      0.041866666667     0.399440000000     0.223605000000     0.093      
N        N      0.311866666667     0.374263333333     0.226625000000     0.093      
N        N      0.316033333333     0.402353333333     0.253440000000     0.093      
N        N      0.086566666667     0.469613333333     0.225540000000     0.093      
N        N      0.049433333333     0.510630000000     0.256680000000     0.093      
N        N      0.074133333333     0.527986666667     0.230375000000     0.093      
N        N      0.313666666667     0.435236666667     0.476580000000     0.093      
N        N      0.310566666667     0.453196666667     0.011805000000     0.093      
N        N      0.043766666667     0.436003333333     0.006255000000     0.093      
N        N      0.088500000000     0.427053333333     0.082355000000     0.093      
N        N      0.054500000000     0.448550000000     0.131960000000     0.093      
N        N      0.086833333333     0.425570000000     0.146015000000     0.093      
N        N      0.124800000000     0.566106666667     0.026395000000     0.093      
N        N      0.188133333333     0.540930000000     0.023375000000     0.093      
N        N      0.183966666667     0.569020000000     0.496560000000     0.093      
N        N      0.080100000000     0.636280000000     0.024460000000     0.093      
N        N      0.117233333333     0.343963333333     0.493320000000     0.093      
N        N      0.092533333333     0.361320000000     0.019625000000     0.093      
N        N      0.186333333333     0.601903333333     0.273420000000     0.093      
N        N      0.189433333333     0.619863333333     0.238195000000     0.093      
N        N      0.122900000000     0.602670000000     0.243745000000     0.093      
N        N      0.078166666667     0.593720000000     0.167645000000     0.093      
N        N      0.112166666667     0.615216666667     0.118040000000     0.093      
N        N      0.079833333333     0.592236666667     0.103985000000     0.093      
N        N      0.291466666667     0.600560000000     0.276395000000     0.093      
N        N      0.021466666667     0.625736666667     0.273375000000     0.093      
N        N      0.017300000000     0.597646666667     0.246560000000     0.093      
N        N      0.246766666667     0.530386666667     0.274460000000     0.093      
N        N      0.283900000000     0.489370000000     0.243320000000     0.093      
N        N      0.259200000000     0.472013333333     0.269625000000     0.093      
N        N      0.019666666667     0.564763333333     0.023420000000     0.093      
N        N      0.022766666667     0.546803333333     0.488195000000     0.093      
N        N      0.289566666667     0.563996666667     0.493745000000     0.093      
N        N      0.244833333333     0.572946666667     0.417645000000     0.093      
N        N      0.278833333333     0.551450000000     0.368040000000     0.093      
N        N      0.246500000000     0.574430000000     0.353985000000     0.093      
N        N      0.208533333333     0.433893333333     0.473605000000     0.093      
N        N      0.145200000000     0.459070000000     0.476625000000     0.093      
N        N      0.149366666667     0.430980000000     0.003440000000     0.093      
N        N      0.253233333333     0.363720000000     0.475540000000     0.093      
N        N      0.216100000000     0.656036666667     0.006680000000     0.093      
N        N      0.240800000000     0.638680000000     0.480375000000     0.093      
N        N      0.147000000000     0.398096666667     0.226580000000     0.093      
N        N      0.143900000000     0.380136666667     0.261805000000     0.093      
N        N      0.210433333333     0.397330000000     0.256255000000     0.093      
N        N      0.255166666667     0.406280000000     0.332355000000     0.093      
N        N      0.221166666667     0.384783333333     0.381960000000     0.093      
N        N      0.253500000000     0.407763333333     0.396015000000     0.093      
N        N      0.041866666667     0.399440000000     0.723605000000     0.093      
N        N      0.311866666667     0.374263333333     0.726625000000     0.093      
N        N      0.316033333333     0.402353333333     0.753440000000     0.093      
N        N      0.086566666667     0.469613333333     0.725540000000     0.093      
N        N      0.049433333333     0.510630000000     0.756680000000     0.093      
N        N      0.074133333333     0.527986666667     0.730375000000     0.093      
N        N      0.313666666667     0.435236666667     0.976580000000     0.093      
N        N      0.310566666667     0.453196666667     0.511805000000     0.093      
N        N      0.043766666667     0.436003333333     0.506255000000     0.093      
N        N      0.088500000000     0.427053333333     0.582355000000     0.093      
N        N      0.054500000000     0.448550000000     0.631960000000     0.093      
N        N      0.086833333333     0.425570000000     0.646015000000     0.093      
N        N      0.124800000000     0.566106666667     0.526395000000     0.093      
N        N      0.188133333333     0.540930000000     0.523375000000     0.093      
N        N      0.183966666667     0.569020000000     0.996560000000     0.093      
N        N      0.080100000000     0.636280000000     0.524460000000     0.093      
N        N      0.117233333333     0.343963333333     0.993320000000     0.093      
N        N      0.092533333333     0.361320000000     0.519625000000     0.093      
N        N      0.186333333333     0.601903333333     0.773420000000     0.093      
N        N      0.189433333333     0.619863333333     0.738195000000     0.093      
N        N      0.122900000000     0.602670000000     0.743745000000     0.093      
N        N      0.078166666667     0.593720000000     0.667645000000     0.093      
N        N      0.112166666667     0.615216666667     0.618040000000     0.093      
N        N      0.079833333333     0.592236666667     0.603985000000     0.093      
N        N      0.291466666667     0.600560000000     0.776395000000     0.093      
N        N      0.021466666667     0.625736666667     0.773375000000     0.093      
N        N      0.017300000000     0.597646666667     0.746560000000     0.093      
N        N      0.246766666667     0.530386666667     0.774460000000     0.093      
N        N      0.283900000000     0.489370000000     0.743320000000     0.093      
N        N      0.259200000000     0.472013333333     0.769625000000     0.093      
N        N      0.019666666667     0.564763333333     0.523420000000     0.093      
N        N      0.022766666667     0.546803333333     0.988195000000     0.093      
N        N      0.289566666667     0.563996666667     0.993745000000     0.093      
N        N      0.244833333333     0.572946666667     0.917645000000     0.093      
N        N      0.278833333333     0.551450000000     0.868040000000     0.093      
N        N      0.246500000000     0.574430000000     0.853985000000     0.093      
N        N      0.208533333333     0.433893333333     0.973605000000     0.093      
N        N      0.145200000000     0.459070000000     0.976625000000     0.093      
N        N      0.149366666667     0.430980000000     0.503440000000     0.093      
N        N      0.253233333333     0.363720000000     0.975540000000     0.093      
N        N      0.216100000000     0.656036666667     0.506680000000     0.093      
N        N      0.240800000000     0.638680000000     0.980375000000     0.093      
N        N      0.147000000000     0.398096666667     0.726580000000     0.093      
N        N      0.143900000000     0.380136666667     0.761805000000     0.093      
N        N      0.210433333333     0.397330000000     0.756255000000     0.093      
N        N      0.255166666667     0.406280000000     0.832355000000     0.093      
N        N      0.221166666667     0.384783333333     0.881960000000     0.093      
N        N      0.253500000000     0.407763333333     0.896015000000     0.093      
N        N      0.041866666667     0.732773333333     0.223605000000     0.093      
N        N      0.311866666667     0.707596666667     0.226625000000     0.093      
N        N      0.316033333333     0.735686666667     0.253440000000     0.093      
N        N      0.086566666667     0.802946666667     0.225540000000     0.093      
N        N      0.049433333333     0.843963333333     0.256680000000     0.093      
N        N      0.074133333333     0.861320000000     0.230375000000     0.093      
N        N      0.313666666667     0.768570000000     0.476580000000     0.093      
N        N      0.310566666667     0.786530000000     0.011805000000     0.093      
N        N      0.043766666667     0.769336666667     0.006255000000     0.093      
N        N      0.088500000000     0.760386666667     0.082355000000     0.093      
N        N      0.054500000000     0.781883333333     0.131960000000     0.093      
N        N      0.086833333333     0.758903333333     0.146015000000     0.093      
N        N      0.124800000000     0.899440000000     0.026395000000     0.093      
N        N      0.188133333333     0.874263333333     0.023375000000     0.093      
N        N      0.183966666667     0.902353333333     0.496560000000     0.093      
N        N      0.080100000000     0.969613333333     0.024460000000     0.093      
N        N      0.117233333333     0.677296666667     0.493320000000     0.093      
N        N      0.092533333333     0.694653333333     0.019625000000     0.093      
N        N      0.186333333333     0.935236666667     0.273420000000     0.093      
N        N      0.189433333333     0.953196666667     0.238195000000     0.093      
N        N      0.122900000000     0.936003333333     0.243745000000     0.093      
N        N      0.078166666667     0.927053333333     0.167645000000     0.093      
N        N      0.112166666667     0.948550000000     0.118040000000     0.093      
N        N      0.079833333333     0.925570000000     0.103985000000     0.093      
N        N      0.291466666667     0.933893333333     0.276395000000     0.093      
N        N      0.021466666667     0.959070000000     0.273375000000     0.093      
N        N      0.017300000000     0.930980000000     0.246560000000     0.093      
N        N      0.246766666667     0.863720000000     0.274460000000     0.093      
N        N      0.283900000000     0.822703333333     0.243320000000     0.093      
N        N      0.259200000000     0.805346666667     0.269625000000     0.093      
N        N      0.019666666667     0.898096666667     0.023420000000     0.093      
N        N      0.022766666667     0.880136666667     0.488195000000     0.093      
N        N      0.289566666667     0.897330000000     0.493745000000     0.093      
N        N      0.244833333333     0.906280000000     0.417645000000     0.093      
N        N      0.278833333333     0.884783333333     0.368040000000     0.093      
N        N      0.246500000000     0.907763333333     0.353985000000     0.093      
N        N      0.208533333333     0.767226666667     0.473605000000     0.093      
N        N      0.145200000000     0.792403333333     0.476625000000     0.093      
N        N      0.149366666667     0.764313333333     0.003440000000     0.093      
N        N      0.253233333333     0.697053333333     0.475540000000     0.093      
N        N      0.216100000000     0.989370000000     0.006680000000     0.093      
N        N      0.240800000000     0.972013333333     0.480375000000     0.093      
N        N      0.147000000000     0.731430000000     0.226580000000     0.093      
N        N      0.143900000000     0.713470000000     0.261805000000     0.093      
N        N      0.210433333333     0.730663333333     0.256255000000     0.093      
N        N      0.255166666667     0.739613333333     0.332355000000     0.093      
N        N      0.221166666667     0.718116666667     0.381960000000     0.093      
N        N      0.253500000000     0.741096666667     0.396015000000     0.093      
N        N      0.041866666667     0.732773333333     0.723605000000     0.093      
N        N      0.311866666667     0.707596666667     0.726625000000     0.093      
N        N      0.316033333333     0.735686666667     0.753440000000     0.093      
N        N      0.086566666667     0.802946666667     0.725540000000     0.093      
N        N      0.049433333333     0.843963333333     0.756680000000     0.093      
N        N      0.074133333333     0.861320000000     0.730375000000     0.093      
N        N      0.313666666667     0.768570000000     0.976580000000     0.093      
N        N      0.310566666667     0.786530000000     0.511805000000     0.093      
N        N      0.043766666667     0.769336666667     0.506255000000     0.093      
N        N      0.088500000000     0.760386666667     0.582355000000     0.093      
N        N      0.054500000000     0.781883333333     0.631960000000     0.093      
N        N      0.086833333333     0.758903333333     0.646015000000     0.093      
N        N      0.124800000000     0.899440000000     0.526395000000     0.093      
N        N      0.188133333333     0.874263333333     0.523375000000     0.093      
N        N      0.183966666667     0.902353333333     0.996560000000     0.093      
N        N      0.080100000000     0.969613333333     0.524460000000     0.093      
N        N      0.117233333333     0.677296666667     0.993320000000     0.093      
N        N      0.092533333333     0.694653333333     0.519625000000     0.093      
N        N      0.186333333333     0.935236666667     0.773420000000     0.093      
N        N      0.189433333333     0.953196666667     0.738195000000     0.093      
N        N      0.122900000000     0.936003333333     0.743745000000     0.093      
N        N      0.078166666667     0.927053333333     0.667645000000     0.093      
N        N      0.112166666667     0.948550000000     0.618040000000     0.093      
N        N      0.079833333333     0.925570000000     0.603985000000     0.093      
N        N      0.291466666667     0.933893333333     0.776395000000     0.093      
N        N      0.021466666667     0.959070000000     0.773375000000     0.093      
N        N      0.017300000000     0.930980000000     0.746560000000     0.093      
N        N      0.246766666667     0.863720000000     0.774460000000     0.093      
N        N      0.283900000000     0.822703333333     0.743320000000     0.093      
N        N      0.259200000000     0.805346666667     0.769625000000     0.093      
N        N      0.019666666667     0.898096666667     0.523420000000     0.093      
N        N      0.022766666667     0.880136666667     0.988195000000     0.093      
N        N      0.289566666667     0.897330000000     0.993745000000     0.093      
N        N      0.244833333333     0.906280000000     0.917645000000     0.093      
N        N      0.278833333333     0.884783333333     0.868040000000     0.093      
N        N      0.246500000000     0.907763333333     0.853985000000     0.093      
N        N      0.208533333333     0.767226666667     0.973605000000     0.093      
N        N      0.145200000000     0.792403333333     0.976625000000     0.093      
N        N      0.149366666667     0.764313333333     0.503440000000     0.093      
N        N      0.253233333333     0.697053333333     0.975540000000     0.093      
N        N      0.216100000000     0.989370000000     0.506680000000     0.093      
N        N      0.240800000000     0.972013333333     0.980375000000     0.093      
N        N      0.147000000000     0.731430000000     0.726580000000     0.093      
N        N      0.143900000000     0.713470000000     0.761805000000     0.093      
N        N      0.210433333333     0.730663333333     0.756255000000     0.093      
N        N      0.255166666667     0.739613333333     0.832355000000     0.093      
N        N      0.221166666667     0.718116666667     0.881960000000     0.093      
N        N      0.253500000000     0.741096666667     0.896015000000     0.093      
N        N      0.375200000000     0.066106666667     0.223605000000     0.093      
N        N      0.645200000000     0.040930000000     0.226625000000     0.093      
N        N      0.649366666667     0.069020000000     0.253440000000     0.093      
N        N      0.419900000000     0.136280000000     0.225540000000     0.093      
N        N      0.382766666667     0.177296666667     0.256680000000     0.093      
N        N      0.407466666667     0.194653333333     0.230375000000     0.093      
N        N      0.647000000000     0.101903333333     0.476580000000     0.093      
N        N      0.643900000000     0.119863333333     0.011805000000     0.093      
N        N      0.377100000000     0.102670000000     0.006255000000     0.093      
N        N      0.421833333333     0.093720000000     0.082355000000     0.093      
N        N      0.387833333333     0.115216666667     0.131960000000     0.093      
N        N      0.420166666667     0.092236666667     0.146015000000     0.093      
N        N      0.458133333333     0.232773333333     0.026395000000     0.093      
N        N      0.521466666667     0.207596666667     0.023375000000     0.093      
N        N      0.517300000000     0.235686666667     0.496560000000     0.093      
N        N      0.413433333333     0.302946666667     0.024460000000     0.093      
N        N      0.450566666667     0.010630000000     0.493320000000     0.093      
N        N      0.425866666667     0.027986666667     0.019625000000     0.093      
N        N      0.519666666667     0.268570000000     0.273420000000     0.093      
N        N      0.522766666667     0.286530000000     0.238195000000     0.093      
N        N      0.456233333333     0.269336666667     0.243745000000     0.093      
N        N      0.411500000000     0.260386666667     0.167645000000     0.093      
N        N      0.445500000000     0.281883333333     0.118040000000     0.093      
N        N      0.413166666667     0.258903333333     0.103985000000     0.093      
N        N      0.624800000000     0.267226666667     0.276395000000     0.093      
N        N      0.354800000000     0.292403333333     0.273375000000     0.093      
N        N      0.350633333333     0.264313333333     0.246560000000     0.093      
N        N      0.580100000000     0.197053333333     0.274460000000     0.093      
N        N      0.617233333333     0.156036666667     0.243320000000     0.093      
N        N      0.592533333333     0.138680000000     0.269625000000     0.093      
N        N      0.353000000000     0.231430000000     0.023420000000     0.093      
N        N      0.356100000000     0.213470000000     0.488195000000     0.093      
N        N      0.622900000000     0.230663333333     0.493745000000     0.093      
N        N      0.578166666667     0.239613333333     0.417645000000     0.093      
N        N      0.612166666667     0.218116666667     0.368040000000     0.093      
N        N      0.579833333333     0.241096666667     0.353985000000     0.093      
N        N      0.541866666667     0.100560000000     0.473605000000     0.093      
N        N      0.478533333333     0.125736666667     0.476625000000     0.093      
N        N      0.482700000000     0.097646666667     0.003440000000     0.093      
N        N      0.586566666667     0.030386666667     0.475540000000     0.093      
N        N      0.549433333333     0.322703333333     0.006680000000     0.093      
N        N      0.574133333333     0.305346666667     0.480375000000     0.093      
N        N      0.480333333333     0.064763333333     0.226580000000     0.093      
N        N      0.477233333333     0.046803333333     0.261805000000     0.093      
N        N      0.543766666667     0.063996666667     0.256255000000     0.093      
N        N      0.588500000000     0.072946666667     0.332355000000     0.093      
N        N      0.554500000000     0.051450000000     0.381960000000     0.093      
N        N      0.586833333333     0.074430000000     0.396015000000     0.093      
N        N      0.375200000000     0.066106666667     0.723605000000     0.093      
N        N      0.645200000000     0.040930000000     0.726625000000     0.093      
N        N      0.649366666667     0.069020000000     0.753440000000     0.093      
N        N      0.419900000000     0.136280000000     0.725540000000     0.093      
N        N      0.382766666667     0.177296666667     0.756680000000     0.093      
N        N      0.407466666667     0.194653333333     0.730375000000     0.093      
N        N      0.647000000000     0.101903333333     0.976580000000     0.093      
N        N      0.643900000000     0.119863333333     0.511805000000     0.093      
N        N      0.377100000000     0.102670000000     0.506255000000     0.093      
N        N      0.421833333333     0.093720000000     0.582355000000     0.093      
N        N      0.387833333333     0.115216666667     0.631960000000     0.093      
N        N      0.420166666667     0.092236666667     0.646015000000     0.093      
N        N      0.458133333333     0.232773333333     0.526395000000     0.093      
N        N      0.521466666667     0.207596666667     0.523375000000     0.093      
N        N      0.517300000000     0.235686666667     0.996560000000     0.093      
N        N      0.413433333333     0.302946666667     0.524460000000     0.093      
N        N      0.450566666667     0.010630000000     0.993320000000     0.093      
N        N      0.425866666667     0.027986666667     0.519625000000     0.093      
N        N      0.519666666667     0.268570000000     0.773420000000     0.093      
N        N      0.522766666667     0.286530000000     0.738195000000     0.093      
N        N      0.456233333333     0.269336666667     0.743745000000     0.093      
N        N      0.411500000000     0.260386666667     0.667645000000     0.093      
N        N      0.445500000000     0.281883333333     0.618040000000     0.093      
N        N      0.413166666667     0.258903333333     0.603985000000     0.093      
N        N      0.624800000000     0.267226666667     0.776395000000     0.093      
N        N      0.354800000000     0.292403333333     0.773375000000     0.093      
N        N      0.350633333333     0.264313333333     0.746560000000     0.093      
N        N      0.580100000000     0.197053333333     0.774460000000     0.093      
N        N      0.617233333333     0.156036666667     0.743320000000     0.093      
N        N      0.592533333333     0.138680000000     0.769625000000     0.093      
N        N      0.353000000000     0.231430000000     0.523420000000     0.093      
N        N      0.356100000000     0.213470000000     0.988195000000     0.093      
N        N      0.622900000000     0.230663333333     0.993745000000     0.093      
N        N      0.578166666667     0.239613333333     0.917645000000     0.093      
N        N      0.612166666667     0.218116666667     0.868040000000     0.093      
N        N      0.579833333333     0.241096666667     0.853985000000     0.093      
N        N      0.541866666667     0.100560000000     0.973605000000     0.093      
N        N      0.478533333333     0.125736666667     0.976625000000     0.093      
N        N      0.482700000000     0.097646666667     0.503440000000     0.093      
N        N      0.586566666667     0.030386666667     0.975540000000     0.093      
N        N      0.549433333333     0.322703333333     0.506680000000     0.093      
N        N      0.574133333333     0.305346666667     0.980375000000     0.093      
N        N      0.480333333333     0.064763333333     0.726580000000     0.093      
N        N      0.477233333333     0.046803333333     0.761805000000     0.093      
N        N      0.543766666667     0.063996666667     0.756255000000     0.093      
N        N      0.588500000000     0.072946666667     0.832355000000     0.093      
N        N      0.554500000000     0.051450000000     0.881960000000     0.093      
N        N      0.586833333333     0.074430000000     0.896015000000     0.093      
N        N      0.375200000000     0.399440000000     0.223605000000     0.093      
N        N      0.645200000000     0.374263333333     0.226625000000     0.093      
N        N      0.649366666667     0.402353333333     0.253440000000     0.093      
N        N      0.419900000000     0.469613333333     0.225540000000     0.093      
N        N      0.382766666667     0.510630000000     0.256680000000     0.093      
N        N      0.407466666667     0.527986666667     0.230375000000     0.093      
N        N      0.647000000000     0.435236666667     0.476580000000     0.093      
N        N      0.643900000000     0.453196666667     0.011805000000     0.093      
N        N      0.377100000000     0.436003333333     0.006255000000     0.093      
N        N      0.421833333333     0.427053333333     0.082355000000     0.093      
N        N      0.387833333333     0.448550000000     0.131960000000     0.093      
N        N      0.420166666667     0.425570000000     0.146015000000     0.093      
N        N      0.458133333333     0.566106666667     0.026395000000     0.093      
N        N      0.521466666667     0.540930000000     0.023375000000     0.093      
N        N      0.517300000000     0.569020000000     0.496560000000     0.093      
N        N      0.413433333333     0.636280000000     0.024460000000     0.093      
N        N      0.450566666667     0.343963333333     0.493320000000     0.093      
N        N      0.425866666667     0.361320000000     0.019625000000     0.093      
N        N      0.519666666667     0.601903333333     0.273420000000     0.093      
N        N      0.522766666667     0.619863333333     0.238195000000     0.093      
N        N      0.456233333333     0.602670000000     0.243745000000     0.093      
N        N      0.411500000000     0.593720000000     0.167645000000     0.093      
N        N      0.445500000000     0.615216666667     0.118040000000     0.093      
N        N      0.413166666667     0.592236666667     0.103985000000     0.093      
N        N      0.624800000000     0.600560000000     0.276395000000     0.093      
N        N      0.354800000000     0.625736666667     0.273375000000     0.093      
N        N      0.350633333333     0.597646666667     0.246560000000     0.093      
N        N      0.580100000000     0.530386666667     0.274460000000     0.093      
N        N      0.617233333333     0.489370000000     0.243320000000     0.093      
N        N      0.592533333333     0.472013333333     0.269625000000     0.093      
N        N      0.353000000000     0.564763333333     0.023420000000     0.093      
N        N      0.356100000000     0.546803333333     0.488195000000     0.093      
N        N      0.622900000000     0.563996666667     0.493745000000     0.093      
N        N      0.578166666667     0.572946666667     0.417645000000     0.093      
N        N      0.612166666667     0.551450000000     0.368040000000     0.093      
N        N      0.579833333333     0.574430000000     0.353985000000     0.093      
N        N      0.541866666667     0.433893333333     0.473605000000     0.093      
N        N      0.478533333333     0.459070000000     0.476625000000     0.093      
N        N      0.482700000000     0.430980000000     0.003440000000     0.093      
N        N      0.586566666667     0.363720000000     0.475540000000     0.093      
N        N      0.549433333333     0.656036666667     0.006680000000     0.093      
N        N      0.574133333333     0.638680000000     0.480375000000     0.093      
N        N      0.480333333333     0.398096666667     0.226580000000     0.093      
N        N      0.477233333333     0.380136666667     0.261805000000     0.093      
N        N      0.543766666667     0.397330000000     0.256255000000     0.093      
N        N      0.588500000000     0.406280000000     0.332355000000     0.093      
N        N      0.554500000000     0.384783333333     0.381960000000     0.093      
N        N      0.586833333333     0.407763333333     0.396015000000     0.093      
N        N      0.375200000000     0.399440000000     0.723605000000     0.093      
N        N      0.645200000000     0.374263333333     0.726625000000     0.093      
N        N      0.649366666667     0.402353333333     0.753440000000     0.093      
N        N      0.419900000000     0.469613333333     0.725540000000     0.093      
N        N      0.382766666667     0.510630000000     0.756680000000     0.093      
N        N      0.407466666667     0.527986666667     0.730375000000     0.093      
N        N      0.647000000000     0.435236666667     0.976580000000     0.093      
N        N      0.643900000000     0.453196666667     0.511805000000     0.093      
N        N      0.377100000000     0.436003333333     0.506255000000     0.093      
N        N      0.421833333333     0.427053333333     0.582355000000     0.093      
N        N      0.387833333333     0.448550000000     0.631960000000     0.093      
N        N      0.420166666667     0.425570000000     0.646015000000     0.093      
N        N      0.458133333333     0.566106666667     0.526395000000     0.093      
N        N      0.521466666667     0.540930000000     0.523375000000     0.093      
N        N      0.517300000000     0.569020000000     0.996560000000     0.093      
N        N      0.413433333333     0.636280000000     0.524460000000     0.093      
N        N      0.450566666667     0.343963333333     0.993320000000     0.093      
N        N      0.425866666667     0.361320000000     0.519625000000     0.093      
N        N      0.519666666667     0.601903333333     0.773420000000     0.093      
N        N      0.522766666667     0.619863333333     0.738195000000     0.093      
N        N      0.456233333333     0.602670000000     0.743745000000     0.093      
N        N      0.411500000000     0.593720000000     0.667645000000     0.093      
N        N      0.445500000000     0.615216666667     0.618040000000     0.093      
N        N      0.413166666667     0.592236666667     0.603985000000     0.093      
N        N      0.624800000000     0.600560000000     0.776395000000     0.093      
N        N      0.354800000000     0.625736666667     0.773375000000     0.093      
N        N      0.350633333333     0.597646666667     0.746560000000     0.093      
N        N      0.580100000000     0.530386666667     0.774460000000     0.093      
N        N      0.617233333333     0.489370000000     0.743320000000     0.093      
N        N      0.592533333333     0.472013333333     0.769625000000     0.093      
N        N      0.353000000000     0.564763333333     0.523420000000     0.093      
N        N      0.356100000000     0.546803333333     0.988195000000     0.093      
N        N      0.622900000000     0.563996666667     0.993745000000     0.093      
N        N      0.578166666667     0.572946666667     0.917645000000     0.093      
N        N      0.612166666667     0.551450000000     0.868040000000     0.093      
N        N      0.579833333333     0.574430000000     0.853985000000     0.093      
N        N      0.541866666667     0.433893333333     0.973605000000     0.093      
N        N      0.478533333333     0.459070000000     0.976625000000     0.093      
N        N      0.482700000000     0.430980000000     0.503440000000     0.093      
N        N      0.586566666667     0.363720000000     0.975540000000     0.093      
N        N      0.549433333333     0.656036666667     0.506680000000     0.093      
N        N      0.574133333333     0.638680000000     0.980375000000     0.093      
N        N      0.480333333333     0.398096666667     0.726580000000     0.093      
N        N      0.477233333333     0.380136666667     0.761805000000     0.093      
N        N      0.543766666667     0.397330000000     0.756255000000     0.093      
N        N      0.588500000000     0.406280000000     0.832355000000     0.093      
N        N      0.554500000000     0.384783333333     0.881960000000     0.093      
N        N      0.586833333333     0.407763333333     0.896015000000     0.093      
N        N      0.375200000000     0.732773333333     0.223605000000     0.093      
N        N      0.645200000000     0.707596666667     0.226625000000     0.093      
N        N      0.649366666667     0.735686666667     0.253440000000     0.093      
N        N      0.419900000000     0.802946666667     0.225540000000     0.093      
N        N      0.382766666667     0.843963333333     0.256680000000     0.093      
N        N      0.407466666667     0.861320000000     0.230375000000     0.093      
N        N      0.647000000000     0.768570000000     0.476580000000     0.093      
N        N      0.643900000000     0.786530000000     0.011805000000     0.093      
N        N      0.377100000000     0.769336666667     0.006255000000     0.093      
N        N      0.421833333333     0.760386666667     0.082355000000     0.093      
N        N      0.387833333333     0.781883333333     0.131960000000     0.093      
N        N      0.420166666667     0.758903333333     0.146015000000     0.093      
N        N      0.458133333333     0.899440000000     0.026395000000     0.093      
N        N      0.521466666667     0.874263333333     0.023375000000     0.093      
N        N      0.517300000000     0.902353333333     0.496560000000     0.093      
N        N      0.413433333333     0.969613333333     0.024460000000     0.093      
N        N      0.450566666667     0.677296666667     0.493320000000     0.093      
N        N      0.425866666667     0.694653333333     0.019625000000     0.093      
N        N      0.519666666667     0.935236666667     0.273420000000     0.093      
N        N      0.522766666667     0.953196666667     0.238195000000     0.093      
N        N      0.456233333333     0.936003333333     0.243745000000     0.093      
N        N      0.411500000000     0.927053333333     0.167645000000     0.093      
N        N      0.445500000000     0.948550000000     0.118040000000     0.093      
N        N      0.413166666667     0.925570000000     0.103985000000     0.093      
N        N      0.624800000000     0.933893333333     0.276395000000     0.093      
N        N      0.354800000000     0.959070000000     0.273375000000     0.093      
N        N      0.350633333333     0.930980000000     0.246560000000     0.093      
N        N      0.580100000000     0.863720000000     0.274460000000     0.093      
N        N      0.617233333333     0.822703333333     0.243320000000     0.093      
N        N      0.592533333333     0.805346666667     0.269625000000     0.093      
N        N      0.353000000000     0.898096666667     0.023420000000     0.093      
N        N      0.356100000000     0.880136666667     0.488195000000     0.093      
N        N      0.622900000000     0.897330000000     0.493745000000     0.093      
N        N      0.578166666667     0.906280000000     0.417645000000     0.093      
N        N      0.612166666667     0.884783333333     0.368040000000     0.093      
N        N      0.579833333333     0.907763333333     0.353985000000     0.093      
N        N      0.541866666667     0.767226666667     0.473605000000     0.093      
N        N      0.478533333333     0.792403333333     0.476625000000     0.093      
N        N      0.482700000000     0.764313333333     0.003440000000     0.093      
N        N      0.586566666667     0.697053333333     0.475540000000     0.093      
N        N      0.549433333333     0.989370000000     0.006680000000     0.093      
N        N      0.574133333333     0.972013333333     0.480375000000     0.093      
N        N      0.480333333333     0.731430000000     0.226580000000     0.093      
N        N      0.477233333333     0.713470000000     0.261805000000     0.093      
N        N      0.543766666667     0.730663333333     0.256255000000     0.093      
N        N      0.588500000000     0.739613333333     0.332355000000     0.093      
N        N      0.554500000000     0.718116666667     0.381960000000     0.093      
N        N      0.586833333333     0.741096666667     0.396015000000     0.093      
N        N      0.375200000000     0.732773333333     0.723605000000     0.093      
N        N      0.645200000000     0.707596666667     0.726625000000     0.093      
N        N      0.649366666667     0.735686666667     0.753440000000     0.093      
N        N      0.419900000000     0.802946666667     0.725540000000     0.093      
N        N      0.382766666667     0.843963333333     0.756680000000     0.093      
N        N      0.407466666667     0.861320000000     0.730375000000     0.093      
N        N      0.647000000000     0.768570000000     0.976580000000     0.093      
N        N      0.643900000000     0.786530000000     0.511805000000     0.093      
N        N      0.377100000000     0.769336666667     0.506255000000     0.093      
N        N      0.421833333333     0.760386666667     0.582355000000     0.093      
N        N      0.387833333333     0.781883333333     0.631960000000     0.093      
N        N      0.420166666667     0.758903333333     0.646015000000     0.093      
N        N      0.458133333333     0.899440000000     0.526395000000     0.093      
N        N      0.521466666667     0.874263333333     0.523375000000     0.093      
N        N      0.517300000000     0.902353333333     0.996560000000     0.093      
N        N      0.413433333333     0.969613333333     0.524460000000     0.093      
N        N      0.450566666667     0.677296666667     0.993320000000     0.093      
N        N      0.425866666667     0.694653333333     0.519625000000     0.093      
N        N      0.519666666667     0.935236666667     0.773420000000     0.093      
N        N      0.522766666667     0.953196666667     0.738195000000     0.093      
N        N      0.456233333333     0.936003333333     0.743745000000     0.093      
N        N      0.411500000000     0.927053333333     0.667645000000     0.093      
N        N      0.445500000000     0.948550000000     0.618040000000     0.093      
N        N      0.413166666667     0.925570000000     0.603985000000     0.093      
N        N      0.624800000000     0.933893333333     0.776395000000     0.093      
N        N      0.354800000000     0.959070000000     0.773375000000     0.093      
N        N      0.350633333333     0.930980000000     0.746560000000     0.093      
N        N      0.580100000000     0.863720000000     0.774460000000     0.093      
N        N      0.617233333333     0.822703333333     0.743320000000     0.093      
N        N      0.592533333333     0.805346666667     0.769625000000     0.093      
N        N      0.353000000000     0.898096666667     0.523420000000     0.093      
N        N      0.356100000000     0.880136666667     0.988195000000     0.093      
N        N      0.622900000000     0.897330000000     0.993745000000     0.093      
N        N      0.578166666667     0.906280000000     0.917645000000     0.093      
N        N      0.612166666667     0.884783333333     0.868040000000     0.093      
N        N      0.579833333333     0.907763333333     0.853985000000     0.093      
N        N      0.541866666667     0.767226666667     0.973605000000     0.093      
N        N      0.478533333333     0.792403333333     0.976625000000     0.093      
N        N      0.482700000000     0.764313333333     0.503440000000     0.093      
N        N      0.586566666667     0.697053333333     0.975540000000     0.093      
N        N      0.549433333333     0.989370000000     0.506680000000     0.093      
N        N      0.574133333333     0.972013333333     0.980375000000     0.093      
N        N      0.480333333333     0.731430000000     0.726580000000     0.093      
N        N      0.477233333333     0.713470000000     0.761805000000     0.093      
N        N      0.543766666667     0.730663333333     0.756255000000     0.093      
N        N      0.588500000000     0.739613333333     0.832355000000     0.093      
N        N      0.554500000000     0.718116666667     0.881960000000     0.093      
N        N      0.586833333333     0.741096666667     0.896015000000     0.093      
N        N      0.708533333333     0.066106666667     0.223605000000     0.093      
N        N      0.978533333333     0.040930000000     0.226625000000     0.093      
N        N      0.982700000000     0.069020000000     0.253440000000     0.093      
N        N      0.753233333333     0.136280000000     0.225540000000     0.093      
N        N      0.716100000000     0.177296666667     0.256680000000     0.093      
N        N      0.740800000000     0.194653333333     0.230375000000     0.093      
N        N      0.980333333333     0.101903333333     0.476580000000     0.093      
N        N      0.977233333333     0.119863333333     0.011805000000     0.093      
N        N      0.710433333333     0.102670000000     0.006255000000     0.093      
N        N      0.755166666667     0.093720000000     0.082355000000     0.093      
N        N      0.721166666667     0.115216666667     0.131960000000     0.093      
N        N      0.753500000000     0.092236666667     0.146015000000     0.093      
N        N      0.791466666667     0.232773333333     0.026395000000     0.093      
N        N      0.854800000000     0.207596666667     0.023375000000     0.093      
N        N      0.850633333333     0.235686666667     0.496560000000     0.093      
N        N      0.746766666667     0.302946666667     0.024460000000     0.093      
N        N      0.783900000000     0.010630000000     0.493320000000     0.093      
N        N      0.759200000000     0.027986666667     0.019625000000     0.093      
N        N      0.853000000000     0.268570000000     0.273420000000     0.093      
N        N      0.856100000000     0.286530000000     0.238195000000     0.093      
N        N      0.789566666667     0.269336666667     0.243745000000     0.093      
N        N      0.744833333333     0.260386666667     0.167645000000     0.093      
N        N      0.778833333333     0.281883333333     0.118040000000     0.093      
N        N      0.746500000000     0.258903333333     0.103985000000     0.093      
N        N      0.958133333333     0.267226666667     0.276395000000     0.093      
N        N      0.688133333333     0.292403333333     0.273375000000     0.093      
N        N      0.683966666667     0.264313333333     0.246560000000     0.093      
N        N      0.913433333333     0.197053333333     0.274460000000     0.093      
N        N      0.950566666667     0.156036666667     0.243320000000     0.093      
N        N      0.925866666667     0.138680000000     0.269625000000     0.093      
N        N      0.686333333333     0.231430000000     0.023420000000     0.093      
N        N      0.689433333333     0.213470000000     0.488195000000     0.093      
N        N      0.956233333333     0.230663333333     0.493745000000     0.093      
N        N      0.911500000000     0.239613333333     0.417645000000     0.093      
N        N      0.945500000000     0.218116666667     0.368040000000     0.093      
N        N      0.913166666667     0.241096666667     0.353985000000     0.093      
N        N      0.875200000000     0.100560000000     0.473605000000     0.093      
N        N      0.811866666667     0.125736666667     0.476625000000     0.093      
N        N      0.816033333333     0.097646666667     0.003440000000     0.093      
N        N      0.919900000000     0.030386666667     0.475540000000     0.093      
N        N      0.882766666667     0.322703333333     0.006680000000     0.093      
N        N      0.907466666667     0.305346666667     0.480375000000     0.093      
N        N      0.813666666667     0.064763333333     0.226580000000     0.093      
N        N      0.810566666667     0.046803333333     0.261805000000     0.093      
N        N      0.877100000000     0.063996666667     0.256255000000     0.093      
N        N      0.921833333333     0.072946666667     0.332355000000     0.093      
N        N      0.887833333333     0.051450000000     0.381960000000     0.093      
N        N      0.920166666667     0.074430000000     0.396015000000     0.093      
N        N      0.708533333333     0.066106666667     0.723605000000     0.093      
N        N      0.978533333333     0.040930000000     0.726625000000     0.093      
N        N      0.982700000000     0.069020000000     0.753440000000     0.093      
N        N      0.753233333333     0.136280000000     0.725540000000     0.093      
N        N      0.716100000000     0.177296666667     0.756680000000     0.093      
N        N      0.740800000000     0.194653333333     0.730375000000     0.093      
N        N      0.980333333333     0.101903333333     0.976580000000     0.093      
N        N      0.977233333333     0.119863333333     0.511805000000     0.093      
N        N      0.710433333333     0.102670000000     0.506255000000     0.093      
N        N      0.755166666667     0.093720000000     0.582355000000     0.093      
N        N      0.721166666667     0.115216666667     0.631960000000     0.093      
N        N      0.753500000000     0.092236666667     0.646015000000     0.093      
N        N      0.791466666667     0.232773333333     0.526395000000     0.093      
N        N      0.854800000000     0.207596666667     0.523375000000     0.093      
N        N      0.850633333333     0.235686666667     0.996560000000     0.093      
N        N      0.746766666667     0.302946666667     0.524460000000     0.093      
N        N      0.783900000000     0.010630000000     0.993320000000     0.093      
N        N      0.759200000000     0.027986666667     0.519625000000     0.093      
N        N      0.853000000000     0.268570000000     0.773420000000     0.093      
N        N      0.856100000000     0.286530000000     0.738195000000     0.093      
N        N      0.789566666667     0.269336666667     0.743745000000     0.093      
N        N      0.744833333333     0.260386666667     0.667645000000     0.093      
N        N      0.778833333333     0.281883333333     0.618040000000     0.093      
N        N      0.746500000000     0.258903333333     0.603985000000     0.093      
N        N      0.958133333333     0.267226666667     0.776395000000     0.093      
N        N      0.688133333333     0.292403333333     0.773375000000     0.093      
N        N      0.683966666667     0.264313333333     0.746560000000     0.093      
N        N      0.913433333333     0.197053333333     0.774460000000     0.093      
N        N      0.950566666667     0.156036666667     0.743320000000     0.093      
N        N      0.925866666667     0.138680000000     0.769625000000     0.093      
N        N      0.686333333333     0.231430000000     0.523420000000     0.093      
N        N      0.689433333333     0.213470000000     0.988195000000     0.093      
N        N      0.956233333333     0.230663333333     0.993745000000     0.093      
N        N      0.911500000000     0.239613333333     0.917645000000     0.093      
N        N      0.945500000000     0.218116666667     0.868040000000     0.093      
N        N      0.913166666667     0.241096666667     0.853985000000     0.093      
N        N      0.875200000000     0.100560000000     0.973605000000     0.093      
N        N      0.811866666667     0.125736666667     0.976625000000     0.093      
N        N      0.816033333333     0.097646666667     0.503440000000     0.093      
N        N      0.919900000000     0.030386666667     0.975540000000     0.093      
N        N      0.882766666667     0.322703333333     0.506680000000     0.093      
N        N      0.907466666667     0.305346666667     0.980375000000     0.093      
N        N      0.813666666667     0.064763333333     0.726580000000     0.093      
N        N      0.810566666667     0.046803333333     0.761805000000     0.093      
N        N      0.877100000000     0.063996666667     0.756255000000     0.093      
N        N      0.921833333333     0.072946666667     0.832355000000     0.093      
N        N      0.887833333333     0.051450000000     0.881960000000     0.093      
N        N      0.920166666667     0.074430000000     0.896015000000     0.093      
N        N      0.708533333333     0.399440000000     0.223605000000     0.093      
N        N      0.978533333333     0.374263333333     0.226625000000     0.093      
N        N      0.982700000000     0.402353333333     0.253440000000     0.093      
N        N      0.753233333333     0.469613333333     0.225540000000     0.093      
N        N      0.716100000000     0.510630000000     0.256680000000     0.093      
N        N      0.740800000000     0.527986666667     0.230375000000     0.093      
N        N      0.980333333333     0.435236666667     0.476580000000     0.093      
N        N      0.977233333333     0.453196666667     0.011805000000     0.093      
N        N      0.710433333333     0.436003333333     0.006255000000     0.093      
N        N      0.755166666667     0.427053333333     0.082355000000     0.093      
N        N      0.721166666667     0.448550000000     0.131960000000     0.093      
N        N      0.753500000000     0.425570000000     0.146015000000     0.093      
N        N      0.791466666667     0.566106666667     0.026395000000     0.093      
N        N      0.854800000000     0.540930000000     0.023375000000     0.093      
N        N      0.850633333333     0.569020000000     0.496560000000     0.093      
N        N      0.746766666667     0.636280000000     0.024460000000     0.093      
N        N      0.783900000000     0.343963333333     0.493320000000     0.093      
N        N      0.759200000000     0.361320000000     0.019625000000     0.093      
N        N      0.853000000000     0.601903333333     0.273420000000     0.093      
N        N      0.856100000000     0.619863333333     0.238195000000     0.093      
N        N      0.789566666667     0.602670000000     0.243745000000     0.093      
N        N      0.744833333333     0.593720000000     0.167645000000     0.093      
N        N      0.778833333333     0.615216666667     0.118040000000     0.093      
N        N      0.746500000000     0.592236666667     0.103985000000     0.093      
N        N      0.958133333333     0.600560000000     0.276395000000     0.093      
N        N      0.688133333333     0.625736666667     0.273375000000     0.093      
N        N      0.683966666667     0.597646666667     0.246560000000     0.093      
N        N      0.913433333333     0.530386666667     0.274460000000     0.093      
N        N      0.950566666667     0.489370000000     0.243320000000     0.093      
N        N      0.925866666667     0.472013333333     0.269625000000     0.093      
N        N      0.686333333333     0.564763333333     0.023420000000     0.093      
N        N      0.689433333333     0.546803333333     0.488195000000     0.093      
N        N      0.956233333333     0.563996666667     0.493745000000     0.093      
N        N      0.911500000000     0.572946666667     0.417645000000     0.093      
N        N      0.945500000000     0.551450000000     0.368040000000     0.093      
N        N      0.913166666667     0.574430000000     0.353985000000     0.093      
N        N      0.875200000000     0.433893333333     0.473605000000     0.093      
N        N      0.811866666667     0.459070000000     0.476625000000     0.093      
N        N      0.816033333333     0.430980000000     0.003440000000     0.093      
N        N      0.919900000000     0.363720000000     0.475540000000     0.093      
N        N      0.882766666667     0.656036666667     0.006680000000     0.093      
N        N      0.907466666667     0.638680000000     0.480375000000     0.093      
N        N      0.813666666667     0.398096666667     0.226580000000     0.093      
N        N      0.810566666667     0.380136666667     0.261805000000     0.093      
N        N      0.877100000000     0.397330000000     0.256255000000     0.093      
N        N      0.921833333333     0.406280000000     0.332355000000     0.093      
N        N      0.887833333333     0.384783333333     0.381960000000     0.093      
N        N      0.920166666667     0.407763333333     0.396015000000     0.093      
N        N      0.708533333333     0.399440000000     0.723605000000     0.093      
N        N      0.978533333333     0.374263333333     0.726625000000     0.093      
N        N      0.982700000000     0.402353333333     0.753440000000     0.093      
N        N      0.753233333333     0.469613333333     0.725540000000     0.093      
N        N      0.716100000000     0.510630000000     0.756680000000     0.093      
N        N      0.740800000000     0.527986666667     0.730375000000     0.093      
N        N      0.980333333333     0.435236666667     0.976580000000     0.093      
N        N      0.977233333333     0.453196666667     0.511805000000     0.093      
N        N      0.710433333333     0.436003333333     0.506255000000     0.093      
N        N      0.755166666667     0.427053333333     0.582355000000     0.093      
N        N      0.721166666667     0.448550000000     0.631960000000     0.093      
N        N      0.753500000000     0.425570000000     0.646015000000     0.093      
N        N      0.791466666667     0.566106666667     0.526395000000     0.093      
N        N      0.854800000000     0.540930000000     0.523375000000     0.093      
N        N      0.850633333333     0.569020000000     0.996560000000     0.093      
N        N      0.746766666667     0.636280000000     0.524460000000     0.093      
N        N      0.783900000000     0.343963333333     0.993320000000     0.093      
N        N      0.759200000000     0.361320000000     0.519625000000     0.093      
N        N      0.853000000000     0.601903333333     0.773420000000     0.093      
N        N      0.856100000000     0.619863333333     0.738195000000     0.093      
N        N      0.789566666667     0.602670000000     0.743745000000     0.093      
N        N      0.744833333333     0.593720000000     0.667645000000     0.093      
N        N      0.778833333333     0.615216666667     0.618040000000     0.093      
N        N      0.746500000000     0.592236666667     0.603985000000     0.093      
N        N      0.958133333333     0.600560000000     0.776395000000     0.093      
N        N      0.688133333333     0.625736666667     0.773375000000     0.093      
N        N      0.683966666667     0.597646666667     0.746560000000     0.093      
N        N      0.913433333333     0.530386666667     0.774460000000     0.093      
N        N      0.950566666667     0.489370000000     0.743320000000     0.093      
N        N      0.925866666667     0.472013333333     0.769625000000     0.093      
N        N      0.686333333333     0.564763333333     0.523420000000     0.093      
N        N      0.689433333333     0.546803333333     0.988195000000     0.093      
N        N      0.956233333333     0.563996666667     0.993745000000     0.093      
N        N      0.911500000000     0.572946666667     0.917645000000     0.093      
N        N      0.945500000000     0.551450000000     0.868040000000     0.093      
N        N      0.913166666667     0.574430000000     0.853985000000     0.093      
N        N      0.875200000000     0.433893333333     0.973605000000     0.093      
N        N      0.811866666667     0.459070000000     0.976625000000     0.093      
N        N      0.816033333333     0.430980000000     0.503440000000     0.093      
N        N      0.919900000000     0.363720000000     0.975540000000     0.093      
N        N      0.882766666667     0.656036666667     0.506680000000     0.093      
N        N      0.907466666667     0.638680000000     0.980375000000     0.093      
N        N      0.813666666667     0.398096666667     0.726580000000     0.093      
N        N      0.810566666667     0.380136666667     0.761805000000     0.093      
N        N      0.877100000000     0.397330000000     0.756255000000     0.093      
N        N      0.921833333333     0.406280000000     0.832355000000     0.093      
N        N      0.887833333333     0.384783333333     0.881960000000     0.093      
N        N      0.920166666667     0.407763333333     0.896015000000     0.093      
N        N      0.708533333333     0.732773333333     0.223605000000     0.093      
N        N      0.978533333333     0.707596666667     0.226625000000     0.093      
N        N      0.982700000000     0.735686666667     0.253440000000     0.093      
N        N      0.753233333333     0.802946666667     0.225540000000     0.093      
N        N      0.716100000000     0.843963333333     0.256680000000     0.093      
N        N      0.740800000000     0.861320000000     0.230375000000     0.093      
N        N      0.980333333333     0.768570000000     0.476580000000     0.093      
N        N      0.977233333333     0.786530000000     0.011805000000     0.093      
N        N      0.710433333333     0.769336666667     0.006255000000     0.093      
N        N      0.755166666667     0.760386666667     0.082355000000     0.093      
N        N      0.721166666667     0.781883333333     0.131960000000     0.093      
N        N      0.753500000000     0.758903333333     0.146015000000     0.093      
N        N      0.791466666667     0.899440000000     0.026395000000     0.093      
N        N      0.854800000000     0.874263333333     0.023375000000     0.093      
N        N      0.850633333333     0.902353333333     0.496560000000     0.093      
N        N      0.746766666667     0.969613333333     0.024460000000     0.093      
N        N      0.783900000000     0.677296666667     0.493320000000     0.093      
N        N      0.759200000000     0.694653333333     0.019625000000     0.093      
N        N      0.853000000000     0.935236666667     0.273420000000     0.093      
N        N      0.856100000000     0.953196666667     0.238195000000     0.093      
N        N      0.789566666667     0.936003333333     0.243745000000     0.093      
N        N      0.744833333333     0.927053333333     0.167645000000     0.093      
N        N      0.778833333333     0.948550000000     0.118040000000     0.093      
N        N      0.746500000000     0.925570000000     0.103985000000     0.093      
N        N      0.958133333333     0.933893333333     0.276395000000     0.093      
N        N      0.688133333333     0.959070000000     0.273375000000     0.093      
N        N      0.683966666667     0.930980000000     0.246560000000     0.093      
N        N      0.913433333333     0.863720000000     0.274460000000     0.093      
N        N      0.950566666667     0.822703333333     0.243320000000     0.093      
N        N      0.925866666667     0.805346666667     0.269625000000     0.093      
N        N      0.686333333333     0.898096666667     0.023420000000     0.093      
N        N      0.689433333333     0.880136666667     0.488195000000     0.093      
N        N      0.956233333333     0.897330000000     0.493745000000     0.093      
N        N      0.911500000000     0.906280000000     0.417645000000     0.093      
N        N      0.945500000000     0.884783333333     0.368040000000     0.093      
N        N      0.913166666667     0.907763333333     0.353985000000     0.093      
N        N      0.875200000000     0.767226666667     0.473605000000     0.093      
N        N      0.811866666667     0.792403333333     0.476625000000     0.093      
N        N      0.816033333333     0.764313333333     0.003440000000     0.093      
N        N      0.919900000000     0.697053333333     0.475540000000     0.093      
N        N      0.882766666667     0.989370000000     0.006680000000     0.093      
N        N      0.907466666667     0.972013333333     0.480375000000     0.093      
N        N      0.813666666667     0.731430000000     0.226580000000     0.093      
N        N      0.810566666667     0.713470000000     0.261805000000     0.093      
N        N      0.877100000000     0.730663333333     0.256255000000     0.093      
N        N      0.921833333333     0.739613333333     0.332355000000     0.093      
N        N      0.887833333333     0.718116666667     0.381960000000     0.093      
N        N      0.920166666667     0.741096666667     0.396015000000     0.093      
N        N      0.708533333333     0.732773333333     0.723605000000     0.093      
N        N      0.978533333333     0.707596666667     0.726625000000     0.093      
N        N      0.982700000000     0.735686666667     0.753440000000     0.093      
N        N      0.753233333333     0.802946666667     0.725540000000     0.093      
N        N      0.716100000000     0.843963333333     0.756680000000     0.093      
N        N      0.740800000000     0.861320000000     0.730375000000     0.093      
N        N      0.980333333333     0.768570000000     0.976580000000     0.093      
N        N      0.977233333333     0.786530000000     0.511805000000     0.093      
N        N      0.710433333333     0.769336666667     0.506255000000     0.093      
N        N      0.755166666667     0.760386666667     0.582355000000     0.093      
N        N      0.721166666667     0.781883333333     0.631960000000     0.093      
N        N      0.753500000000     0.758903333333     0.646015000000     0.093      
N        N      0.791466666667     0.899440000000     0.526395000000     0.093      
N        N      0.854800000000     0.874263333333     0.523375000000     0.093      
N        N      0.850633333333     0.902353333333     0.996560000000     0.093      
N        N      0.746766666667     0.969613333333     0.524460000000     0.093      
N        N      0.783900000000     0.677296666667     0.993320000000     0.093      
N        N      0.759200000000     0.694653333333     0.519625000000     0.093      
N        N      0.853000000000     0.935236666667     0.773420000000     0.093      
N        N      0.856100000000     0.953196666667     0.738195000000     0.093      
N        N      0.789566666667     0.936003333333     0.743745000000     0.093      
N        N      0.744833333333     0.927053333333     0.667645000000     0.093      
N        N      0.778833333333     0.948550000000     0.618040000000     0.093      
N        N      0.746500000000     0.925570000000     0.603985000000     0.093      
N        N      0.958133333333     0.933893333333     0.776395000000     0.093      
N        N      0.688133333333     0.959070000000     0.773375000000     0.093      
N        N      0.683966666667     0.930980000000     0.746560000000     0.093      
N        N      0.913433333333     0.863720000000     0.774460000000     0.093      
N        N      0.950566666667     0.822703333333     0.743320000000     0.093      
N        N      0.925866666667     0.805346666667     0.769625000000     0.093      
N        N      0.686333333333     0.898096666667     0.523420000000     0.093      
N        N      0.689433333333     0.880136666667     0.988195000000     0.093      
N        N      0.956233333333     0.897330000000     0.993745000000     0.093      
N        N      0.911500000000     0.906280000000     0.917645000000     0.093      
N        N      0.945500000000     0.884783333333     0.868040000000     0.093      
N        N      0.913166666667     0.907763333333     0.853985000000     0.093      
N        N      0.875200000000     0.767226666667     0.973605000000     0.093      
N        N      0.811866666667     0.792403333333     0.976625000000     0.093      
N        N      0.816033333333     0.764313333333     0.503440000000     0.093      
N        N      0.919900000000     0.697053333333     0.975540000000     0.093      
N        N      0.882766666667     0.989370000000     0.506680000000     0.093      
N        N      0.907466666667     0.972013333333     0.980375000000     0.093      
N        N      0.813666666667     0.731430000000     0.726580000000     0.093      
N        N      0.810566666667     0.713470000000     0.761805000000     0.093      
N        N      0.877100000000     0.730663333333     0.756255000000     0.093      
N        N      0.921833333333     0.739613333333     0.832355000000     0.093      
N        N      0.887833333333     0.718116666667     0.881960000000     0.093      
N        N      0.920166666667     0.741096666667     0.896015000000     0.093      


