data_PEPLOM_clean_DDEC

_audit_creation_method RASPA-1.0
_audit_creation_date 2025-9-8
_audit_author_name ''

_cell_length_a    33.98
_cell_length_b    30.642
_cell_length_c    36.82
_cell_angle_alpha 90
_cell_angle_beta  90
_cell_angle_gamma 90
_cell_volume      38337.5

_symmetry_cell_setting          triclinic
_symmetry_space_group_name_Hall 'P 1'
_symmetry_space_group_name_H-M  'P 1'
_symmetry_Int_Tables_number     1

_symmetry_equiv_pos_as_xyz 'x,y,z'

loop_
_atom_site_label
_atom_site_type_symbol
_atom_site_fract_x
_atom_site_fract_y
_atom_site_fract_z
_atom_site_charge
C1       C      0.066000000000     0.154933333333     0.017500000000    -0.107365   
C2       C      0.197240000000     0.297200000000     0.428150000000     0.621827   
C3       C      0.164600000000     0.328700000000     0.482700000000    -0.106612   
C4       C      0.034000000000     0.321600000000     0.482500000000    -0.107366   
C5       C      0.102760000000     0.130533333333     0.071850000000     0.621829   
C6       C      0.101440000000     0.150766666667     0.034850000000    -0.016705   
C7       C      0.135400000000     0.162033333333     0.017300000000    -0.106604   
C8       C      0.197240000000     0.297200000000     0.321850000000     0.621828   
C9       C      0.198560000000     0.317433333333     0.284850000000    -0.016711   
C10      C      0.164600000000     0.328700000000     0.267300000000    -0.106603   
C11      C      0.034000000000     0.321600000000     0.267500000000    -0.107359   
C12      C      0.134000000000     0.178400000000     0.267500000000    -0.107365   
C13      C      0.102760000000     0.130533333333     0.178150000000     0.621828   
C14      C      0.135400000000     0.162033333333     0.232700000000    -0.106606   
C15      C      0.066000000000     0.154933333333     0.232500000000    -0.107364   
C16      C      0.002760000000     0.036133333333     0.071850000000     0.621829   
C17      C      0.001440000000     0.015900000000     0.034850000000    -0.016711   
C18      C      0.035400000000     0.004633333333     0.017300000000    -0.106597   
C19      C      0.166000000000     0.011733333333     0.017500000000    -0.107354   
C20      C      0.097240000000     0.202800000000     0.428150000000     0.621828   
C21      C      0.098560000000     0.182566666667     0.465150000000    -0.016712   
C22      C      0.064600000000     0.171300000000     0.482700000000    -0.106598   
C23      C      0.134000000000     0.178400000000     0.482500000000    -0.107356   
C24      C      0.101440000000     0.150766666667     0.215150000000    -0.016699   
C25      C      0.064600000000     0.171300000000     0.267300000000    -0.106607   
C26      C      0.198560000000     0.317433333333     0.465150000000    -0.016699   
C27      C      0.097240000000     0.202800000000     0.321850000000     0.621827   
C28      C      0.166000000000     0.011733333333     0.232500000000    -0.10736    
C29      C      0.035400000000     0.004633333333     0.232700000000    -0.106607   
C30      C      0.001440000000     0.015900000000     0.215150000000    -0.016699   
C31      C      0.002760000000     0.036133333333     0.178150000000     0.621828   
C32      C      0.098560000000     0.182566666667     0.284850000000    -0.0167     
H1       H      0.059480000000     0.008000000000     0.221050000000     0.12541    
H2       H      0.142820000000     0.019966666667     0.220800000000     0.12564    
H3       H      0.040520000000     0.174666666667     0.278950000000     0.125409   
H4       H      0.157180000000     0.186633333333     0.279200000000     0.12564    
H5       H      0.140520000000     0.325333333333     0.471050000000     0.12541    
H6       H      0.057180000000     0.313366666667     0.470800000000     0.12564    
H7       H      0.042820000000     0.146700000000     0.029200000000     0.125641   
H8       H      0.140520000000     0.325333333333     0.278950000000     0.125409   
H9       H      0.159480000000     0.158666666667     0.028950000000     0.125409   
H10      H      0.159480000000     0.158666666667     0.221050000000     0.12541    
H11      H      0.042820000000     0.146700000000     0.220800000000     0.125641   
H12      H      0.059480000000     0.008000000000     0.028950000000     0.125409   
H13      H      0.142820000000     0.019966666667     0.029200000000     0.12564    
H14      H      0.040520000000     0.174666666667     0.471050000000     0.125409   
H15      H      0.157180000000     0.186633333333     0.470800000000     0.12564    
H16      H      0.057180000000     0.313366666667     0.279200000000     0.12564    
O1       O      0.163860000000     0.291933333333     0.335850000000    -0.596821   
O2       O      0.070340000000     0.120100000000     0.163750000000    -0.578435   
O3       O      0.136140000000     0.125266666667     0.164150000000    -0.596822   
O4       O      0.170340000000     0.046566666667     0.086250000000    -0.578436   
O5       O      0.063860000000     0.208066666667     0.414150000000    -0.596821   
O6       O      0.096800000000     0.276133333333     0.375000000000    -0.750251   
O7       O      0.003200000000     0.109466666667     0.125000000000    -0.750252   
O8       O      0.029660000000     0.286766666667     0.336250000000    -0.578434   
O9       O      0.129660000000     0.213233333333     0.413750000000    -0.578434   
O10      O      0.036140000000     0.041400000000     0.085850000000    -0.596822   
O11      O      0.136140000000     0.125266666667     0.085850000000    -0.596822   
O12      O      0.103200000000     0.057200000000     0.125000000000    -0.750252   
O13      O      0.163860000000     0.291933333333     0.414150000000    -0.59682    
O14      O      0.029660000000     0.286766666667     0.413750000000    -0.578433   
O15      O      0.063860000000     0.208066666667     0.335850000000    -0.59682    
O16      O      0.129660000000     0.213233333333     0.336250000000    -0.578433   
O17      O      0.036140000000     0.041400000000     0.164150000000    -0.596822   
O18      O      0.170340000000     0.046566666667     0.163750000000    -0.578435   
O19      O      0.196800000000     0.223866666667     0.375000000000    -0.750251   
O20      O      0.070340000000     0.120100000000     0.086250000000    -0.578435   
V1       V      0.060140000000     0.077433333333     0.125000000000     1.81635    
V2       V      0.039860000000     0.244100000000     0.375000000000     1.81635    
V3       V      0.139860000000     0.255900000000     0.375000000000     1.81635    
V4       V      0.160140000000     0.089233333333     0.125000000000     1.81635    
C1       C      0.066000000000     0.154933333333     0.517500000000    -0.107365   
C2       C      0.197240000000     0.297200000000     0.928150000000     0.621827   
C3       C      0.164600000000     0.328700000000     0.982700000000    -0.106612   
C4       C      0.034000000000     0.321600000000     0.982500000000    -0.107366   
C5       C      0.102760000000     0.130533333333     0.571850000000     0.621829   
C6       C      0.101440000000     0.150766666667     0.534850000000    -0.016705   
C7       C      0.135400000000     0.162033333333     0.517300000000    -0.106604   
C8       C      0.197240000000     0.297200000000     0.821850000000     0.621828   
C9       C      0.198560000000     0.317433333333     0.784850000000    -0.016711   
C10      C      0.164600000000     0.328700000000     0.767300000000    -0.106603   
C11      C      0.034000000000     0.321600000000     0.767500000000    -0.107359   
C12      C      0.134000000000     0.178400000000     0.767500000000    -0.107365   
C13      C      0.102760000000     0.130533333333     0.678150000000     0.621828   
C14      C      0.135400000000     0.162033333333     0.732700000000    -0.106606   
C15      C      0.066000000000     0.154933333333     0.732500000000    -0.107364   
C16      C      0.002760000000     0.036133333333     0.571850000000     0.621829   
C17      C      0.001440000000     0.015900000000     0.534850000000    -0.016711   
C18      C      0.035400000000     0.004633333333     0.517300000000    -0.106597   
C19      C      0.166000000000     0.011733333333     0.517500000000    -0.107354   
C20      C      0.097240000000     0.202800000000     0.928150000000     0.621828   
C21      C      0.098560000000     0.182566666667     0.965150000000    -0.016712   
C22      C      0.064600000000     0.171300000000     0.982700000000    -0.106598   
C23      C      0.134000000000     0.178400000000     0.982500000000    -0.107356   
C24      C      0.101440000000     0.150766666667     0.715150000000    -0.016699   
C25      C      0.064600000000     0.171300000000     0.767300000000    -0.106607   
C26      C      0.198560000000     0.317433333333     0.965150000000    -0.016699   
C27      C      0.097240000000     0.202800000000     0.821850000000     0.621827   
C28      C      0.166000000000     0.011733333333     0.732500000000    -0.10736    
C29      C      0.035400000000     0.004633333333     0.732700000000    -0.106607   
C30      C      0.001440000000     0.015900000000     0.715150000000    -0.016699   
C31      C      0.002760000000     0.036133333333     0.678150000000     0.621828   
C32      C      0.098560000000     0.182566666667     0.784850000000    -0.0167     
H1       H      0.059480000000     0.008000000000     0.721050000000     0.12541    
H2       H      0.142820000000     0.019966666667     0.720800000000     0.12564    
H3       H      0.040520000000     0.174666666667     0.778950000000     0.125409   
H4       H      0.157180000000     0.186633333333     0.779200000000     0.12564    
H5       H      0.140520000000     0.325333333333     0.971050000000     0.12541    
H6       H      0.057180000000     0.313366666667     0.970800000000     0.12564    
H7       H      0.042820000000     0.146700000000     0.529200000000     0.125641   
H8       H      0.140520000000     0.325333333333     0.778950000000     0.125409   
H9       H      0.159480000000     0.158666666667     0.528950000000     0.125409   
H10      H      0.159480000000     0.158666666667     0.721050000000     0.12541    
H11      H      0.042820000000     0.146700000000     0.720800000000     0.125641   
H12      H      0.059480000000     0.008000000000     0.528950000000     0.125409   
H13      H      0.142820000000     0.019966666667     0.529200000000     0.12564    
H14      H      0.040520000000     0.174666666667     0.971050000000     0.125409   
H15      H      0.157180000000     0.186633333333     0.970800000000     0.12564    
H16      H      0.057180000000     0.313366666667     0.779200000000     0.12564    
O1       O      0.163860000000     0.291933333333     0.835850000000    -0.596821   
O2       O      0.070340000000     0.120100000000     0.663750000000    -0.578435   
O3       O      0.136140000000     0.125266666667     0.664150000000    -0.596822   
O4       O      0.170340000000     0.046566666667     0.586250000000    -0.578436   
O5       O      0.063860000000     0.208066666667     0.914150000000    -0.596821   
O6       O      0.096800000000     0.276133333333     0.875000000000    -0.750251   
O7       O      0.003200000000     0.109466666667     0.625000000000    -0.750252   
O8       O      0.029660000000     0.286766666667     0.836250000000    -0.578434   
O9       O      0.129660000000     0.213233333333     0.913750000000    -0.578434   
O10      O      0.036140000000     0.041400000000     0.585850000000    -0.596822   
O11      O      0.136140000000     0.125266666667     0.585850000000    -0.596822   
O12      O      0.103200000000     0.057200000000     0.625000000000    -0.750252   
O13      O      0.163860000000     0.291933333333     0.914150000000    -0.59682    
O14      O      0.029660000000     0.286766666667     0.913750000000    -0.578433   
O15      O      0.063860000000     0.208066666667     0.835850000000    -0.59682    
O16      O      0.129660000000     0.213233333333     0.836250000000    -0.578433   
O17      O      0.036140000000     0.041400000000     0.664150000000    -0.596822   
O18      O      0.170340000000     0.046566666667     0.663750000000    -0.578435   
O19      O      0.196800000000     0.223866666667     0.875000000000    -0.750251   
O20      O      0.070340000000     0.120100000000     0.586250000000    -0.578435   
V1       V      0.060140000000     0.077433333333     0.625000000000     1.81635    
V2       V      0.039860000000     0.244100000000     0.875000000000     1.81635    
V3       V      0.139860000000     0.255900000000     0.875000000000     1.81635    
V4       V      0.160140000000     0.089233333333     0.625000000000     1.81635    
C1       C      0.066000000000     0.488266666667     0.017500000000    -0.107365   
C2       C      0.197240000000     0.630533333333     0.428150000000     0.621827   
C3       C      0.164600000000     0.662033333333     0.482700000000    -0.106612   
C4       C      0.034000000000     0.654933333333     0.482500000000    -0.107366   
C5       C      0.102760000000     0.463866666667     0.071850000000     0.621829   
C6       C      0.101440000000     0.484100000000     0.034850000000    -0.016705   
C7       C      0.135400000000     0.495366666667     0.017300000000    -0.106604   
C8       C      0.197240000000     0.630533333333     0.321850000000     0.621828   
C9       C      0.198560000000     0.650766666667     0.284850000000    -0.016711   
C10      C      0.164600000000     0.662033333333     0.267300000000    -0.106603   
C11      C      0.034000000000     0.654933333333     0.267500000000    -0.107359   
C12      C      0.134000000000     0.511733333333     0.267500000000    -0.107365   
C13      C      0.102760000000     0.463866666667     0.178150000000     0.621828   
C14      C      0.135400000000     0.495366666667     0.232700000000    -0.106606   
C15      C      0.066000000000     0.488266666667     0.232500000000    -0.107364   
C16      C      0.002760000000     0.369466666667     0.071850000000     0.621829   
C17      C      0.001440000000     0.349233333333     0.034850000000    -0.016711   
C18      C      0.035400000000     0.337966666667     0.017300000000    -0.106597   
C19      C      0.166000000000     0.345066666667     0.017500000000    -0.107354   
C20      C      0.097240000000     0.536133333333     0.428150000000     0.621828   
C21      C      0.098560000000     0.515900000000     0.465150000000    -0.016712   
C22      C      0.064600000000     0.504633333333     0.482700000000    -0.106598   
C23      C      0.134000000000     0.511733333333     0.482500000000    -0.107356   
C24      C      0.101440000000     0.484100000000     0.215150000000    -0.016699   
C25      C      0.064600000000     0.504633333333     0.267300000000    -0.106607   
C26      C      0.198560000000     0.650766666667     0.465150000000    -0.016699   
C27      C      0.097240000000     0.536133333333     0.321850000000     0.621827   
C28      C      0.166000000000     0.345066666667     0.232500000000    -0.10736    
C29      C      0.035400000000     0.337966666667     0.232700000000    -0.106607   
C30      C      0.001440000000     0.349233333333     0.215150000000    -0.016699   
C31      C      0.002760000000     0.369466666667     0.178150000000     0.621828   
C32      C      0.098560000000     0.515900000000     0.284850000000    -0.0167     
H1       H      0.059480000000     0.341333333333     0.221050000000     0.12541    
H2       H      0.142820000000     0.353300000000     0.220800000000     0.12564    
H3       H      0.040520000000     0.508000000000     0.278950000000     0.125409   
H4       H      0.157180000000     0.519966666667     0.279200000000     0.12564    
H5       H      0.140520000000     0.658666666667     0.471050000000     0.12541    
H6       H      0.057180000000     0.646700000000     0.470800000000     0.12564    
H7       H      0.042820000000     0.480033333333     0.029200000000     0.125641   
H8       H      0.140520000000     0.658666666667     0.278950000000     0.125409   
H9       H      0.159480000000     0.492000000000     0.028950000000     0.125409   
H10      H      0.159480000000     0.492000000000     0.221050000000     0.12541    
H11      H      0.042820000000     0.480033333333     0.220800000000     0.125641   
H12      H      0.059480000000     0.341333333333     0.028950000000     0.125409   
H13      H      0.142820000000     0.353300000000     0.029200000000     0.12564    
H14      H      0.040520000000     0.508000000000     0.471050000000     0.125409   
H15      H      0.157180000000     0.519966666667     0.470800000000     0.12564    
H16      H      0.057180000000     0.646700000000     0.279200000000     0.12564    
O1       O      0.163860000000     0.625266666667     0.335850000000    -0.596821   
O2       O      0.070340000000     0.453433333333     0.163750000000    -0.578435   
O3       O      0.136140000000     0.458600000000     0.164150000000    -0.596822   
O4       O      0.170340000000     0.379900000000     0.086250000000    -0.578436   
O5       O      0.063860000000     0.541400000000     0.414150000000    -0.596821   
O6       O      0.096800000000     0.609466666667     0.375000000000    -0.750251   
O7       O      0.003200000000     0.442800000000     0.125000000000    -0.750252   
O8       O      0.029660000000     0.620100000000     0.336250000000    -0.578434   
O9       O      0.129660000000     0.546566666667     0.413750000000    -0.578434   
O10      O      0.036140000000     0.374733333333     0.085850000000    -0.596822   
O11      O      0.136140000000     0.458600000000     0.085850000000    -0.596822   
O12      O      0.103200000000     0.390533333333     0.125000000000    -0.750252   
O13      O      0.163860000000     0.625266666667     0.414150000000    -0.59682    
O14      O      0.029660000000     0.620100000000     0.413750000000    -0.578433   
O15      O      0.063860000000     0.541400000000     0.335850000000    -0.59682    
O16      O      0.129660000000     0.546566666667     0.336250000000    -0.578433   
O17      O      0.036140000000     0.374733333333     0.164150000000    -0.596822   
O18      O      0.170340000000     0.379900000000     0.163750000000    -0.578435   
O19      O      0.196800000000     0.557200000000     0.375000000000    -0.750251   
O20      O      0.070340000000     0.453433333333     0.086250000000    -0.578435   
V1       V      0.060140000000     0.410766666667     0.125000000000     1.81635    
V2       V      0.039860000000     0.577433333333     0.375000000000     1.81635    
V3       V      0.139860000000     0.589233333333     0.375000000000     1.81635    
V4       V      0.160140000000     0.422566666667     0.125000000000     1.81635    
C1       C      0.066000000000     0.488266666667     0.517500000000    -0.107365   
C2       C      0.197240000000     0.630533333333     0.928150000000     0.621827   
C3       C      0.164600000000     0.662033333333     0.982700000000    -0.106612   
C4       C      0.034000000000     0.654933333333     0.982500000000    -0.107366   
C5       C      0.102760000000     0.463866666667     0.571850000000     0.621829   
C6       C      0.101440000000     0.484100000000     0.534850000000    -0.016705   
C7       C      0.135400000000     0.495366666667     0.517300000000    -0.106604   
C8       C      0.197240000000     0.630533333333     0.821850000000     0.621828   
C9       C      0.198560000000     0.650766666667     0.784850000000    -0.016711   
C10      C      0.164600000000     0.662033333333     0.767300000000    -0.106603   
C11      C      0.034000000000     0.654933333333     0.767500000000    -0.107359   
C12      C      0.134000000000     0.511733333333     0.767500000000    -0.107365   
C13      C      0.102760000000     0.463866666667     0.678150000000     0.621828   
C14      C      0.135400000000     0.495366666667     0.732700000000    -0.106606   
C15      C      0.066000000000     0.488266666667     0.732500000000    -0.107364   
C16      C      0.002760000000     0.369466666667     0.571850000000     0.621829   
C17      C      0.001440000000     0.349233333333     0.534850000000    -0.016711   
C18      C      0.035400000000     0.337966666667     0.517300000000    -0.106597   
C19      C      0.166000000000     0.345066666667     0.517500000000    -0.107354   
C20      C      0.097240000000     0.536133333333     0.928150000000     0.621828   
C21      C      0.098560000000     0.515900000000     0.965150000000    -0.016712   
C22      C      0.064600000000     0.504633333333     0.982700000000    -0.106598   
C23      C      0.134000000000     0.511733333333     0.982500000000    -0.107356   
C24      C      0.101440000000     0.484100000000     0.715150000000    -0.016699   
C25      C      0.064600000000     0.504633333333     0.767300000000    -0.106607   
C26      C      0.198560000000     0.650766666667     0.965150000000    -0.016699   
C27      C      0.097240000000     0.536133333333     0.821850000000     0.621827   
C28      C      0.166000000000     0.345066666667     0.732500000000    -0.10736    
C29      C      0.035400000000     0.337966666667     0.732700000000    -0.106607   
C30      C      0.001440000000     0.349233333333     0.715150000000    -0.016699   
C31      C      0.002760000000     0.369466666667     0.678150000000     0.621828   
C32      C      0.098560000000     0.515900000000     0.784850000000    -0.0167     
H1       H      0.059480000000     0.341333333333     0.721050000000     0.12541    
H2       H      0.142820000000     0.353300000000     0.720800000000     0.12564    
H3       H      0.040520000000     0.508000000000     0.778950000000     0.125409   
H4       H      0.157180000000     0.519966666667     0.779200000000     0.12564    
H5       H      0.140520000000     0.658666666667     0.971050000000     0.12541    
H6       H      0.057180000000     0.646700000000     0.970800000000     0.12564    
H7       H      0.042820000000     0.480033333333     0.529200000000     0.125641   
H8       H      0.140520000000     0.658666666667     0.778950000000     0.125409   
H9       H      0.159480000000     0.492000000000     0.528950000000     0.125409   
H10      H      0.159480000000     0.492000000000     0.721050000000     0.12541    
H11      H      0.042820000000     0.480033333333     0.720800000000     0.125641   
H12      H      0.059480000000     0.341333333333     0.528950000000     0.125409   
H13      H      0.142820000000     0.353300000000     0.529200000000     0.12564    
H14      H      0.040520000000     0.508000000000     0.971050000000     0.125409   
H15      H      0.157180000000     0.519966666667     0.970800000000     0.12564    
H16      H      0.057180000000     0.646700000000     0.779200000000     0.12564    
O1       O      0.163860000000     0.625266666667     0.835850000000    -0.596821   
O2       O      0.070340000000     0.453433333333     0.663750000000    -0.578435   
O3       O      0.136140000000     0.458600000000     0.664150000000    -0.596822   
O4       O      0.170340000000     0.379900000000     0.586250000000    -0.578436   
O5       O      0.063860000000     0.541400000000     0.914150000000    -0.596821   
O6       O      0.096800000000     0.609466666667     0.875000000000    -0.750251   
O7       O      0.003200000000     0.442800000000     0.625000000000    -0.750252   
O8       O      0.029660000000     0.620100000000     0.836250000000    -0.578434   
O9       O      0.129660000000     0.546566666667     0.913750000000    -0.578434   
O10      O      0.036140000000     0.374733333333     0.585850000000    -0.596822   
O11      O      0.136140000000     0.458600000000     0.585850000000    -0.596822   
O12      O      0.103200000000     0.390533333333     0.625000000000    -0.750252   
O13      O      0.163860000000     0.625266666667     0.914150000000    -0.59682    
O14      O      0.029660000000     0.620100000000     0.913750000000    -0.578433   
O15      O      0.063860000000     0.541400000000     0.835850000000    -0.59682    
O16      O      0.129660000000     0.546566666667     0.836250000000    -0.578433   
O17      O      0.036140000000     0.374733333333     0.664150000000    -0.596822   
O18      O      0.170340000000     0.379900000000     0.663750000000    -0.578435   
O19      O      0.196800000000     0.557200000000     0.875000000000    -0.750251   
O20      O      0.070340000000     0.453433333333     0.586250000000    -0.578435   
V1       V      0.060140000000     0.410766666667     0.625000000000     1.81635    
V2       V      0.039860000000     0.577433333333     0.875000000000     1.81635    
V3       V      0.139860000000     0.589233333333     0.875000000000     1.81635    
V4       V      0.160140000000     0.422566666667     0.625000000000     1.81635    
C1       C      0.066000000000     0.821600000000     0.017500000000    -0.107365   
C2       C      0.197240000000     0.963866666667     0.428150000000     0.621827   
C3       C      0.164600000000     0.995366666667     0.482700000000    -0.106612   
C4       C      0.034000000000     0.988266666667     0.482500000000    -0.107366   
C5       C      0.102760000000     0.797200000000     0.071850000000     0.621829   
C6       C      0.101440000000     0.817433333333     0.034850000000    -0.016705   
C7       C      0.135400000000     0.828700000000     0.017300000000    -0.106604   
C8       C      0.197240000000     0.963866666667     0.321850000000     0.621828   
C9       C      0.198560000000     0.984100000000     0.284850000000    -0.016711   
C10      C      0.164600000000     0.995366666667     0.267300000000    -0.106603   
C11      C      0.034000000000     0.988266666667     0.267500000000    -0.107359   
C12      C      0.134000000000     0.845066666667     0.267500000000    -0.107365   
C13      C      0.102760000000     0.797200000000     0.178150000000     0.621828   
C14      C      0.135400000000     0.828700000000     0.232700000000    -0.106606   
C15      C      0.066000000000     0.821600000000     0.232500000000    -0.107364   
C16      C      0.002760000000     0.702800000000     0.071850000000     0.621829   
C17      C      0.001440000000     0.682566666667     0.034850000000    -0.016711   
C18      C      0.035400000000     0.671300000000     0.017300000000    -0.106597   
C19      C      0.166000000000     0.678400000000     0.017500000000    -0.107354   
C20      C      0.097240000000     0.869466666667     0.428150000000     0.621828   
C21      C      0.098560000000     0.849233333333     0.465150000000    -0.016712   
C22      C      0.064600000000     0.837966666667     0.482700000000    -0.106598   
C23      C      0.134000000000     0.845066666667     0.482500000000    -0.107356   
C24      C      0.101440000000     0.817433333333     0.215150000000    -0.016699   
C25      C      0.064600000000     0.837966666667     0.267300000000    -0.106607   
C26      C      0.198560000000     0.984100000000     0.465150000000    -0.016699   
C27      C      0.097240000000     0.869466666667     0.321850000000     0.621827   
C28      C      0.166000000000     0.678400000000     0.232500000000    -0.10736    
C29      C      0.035400000000     0.671300000000     0.232700000000    -0.106607   
C30      C      0.001440000000     0.682566666667     0.215150000000    -0.016699   
C31      C      0.002760000000     0.702800000000     0.178150000000     0.621828   
C32      C      0.098560000000     0.849233333333     0.284850000000    -0.0167     
H1       H      0.059480000000     0.674666666667     0.221050000000     0.12541    
H2       H      0.142820000000     0.686633333333     0.220800000000     0.12564    
H3       H      0.040520000000     0.841333333333     0.278950000000     0.125409   
H4       H      0.157180000000     0.853300000000     0.279200000000     0.12564    
H5       H      0.140520000000     0.992000000000     0.471050000000     0.12541    
H6       H      0.057180000000     0.980033333333     0.470800000000     0.12564    
H7       H      0.042820000000     0.813366666667     0.029200000000     0.125641   
H8       H      0.140520000000     0.992000000000     0.278950000000     0.125409   
H9       H      0.159480000000     0.825333333333     0.028950000000     0.125409   
H10      H      0.159480000000     0.825333333333     0.221050000000     0.12541    
H11      H      0.042820000000     0.813366666667     0.220800000000     0.125641   
H12      H      0.059480000000     0.674666666667     0.028950000000     0.125409   
H13      H      0.142820000000     0.686633333333     0.029200000000     0.12564    
H14      H      0.040520000000     0.841333333333     0.471050000000     0.125409   
H15      H      0.157180000000     0.853300000000     0.470800000000     0.12564    
H16      H      0.057180000000     0.980033333333     0.279200000000     0.12564    
O1       O      0.163860000000     0.958600000000     0.335850000000    -0.596821   
O2       O      0.070340000000     0.786766666667     0.163750000000    -0.578435   
O3       O      0.136140000000     0.791933333333     0.164150000000    -0.596822   
O4       O      0.170340000000     0.713233333333     0.086250000000    -0.578436   
O5       O      0.063860000000     0.874733333333     0.414150000000    -0.596821   
O6       O      0.096800000000     0.942800000000     0.375000000000    -0.750251   
O7       O      0.003200000000     0.776133333333     0.125000000000    -0.750252   
O8       O      0.029660000000     0.953433333333     0.336250000000    -0.578434   
O9       O      0.129660000000     0.879900000000     0.413750000000    -0.578434   
O10      O      0.036140000000     0.708066666667     0.085850000000    -0.596822   
O11      O      0.136140000000     0.791933333333     0.085850000000    -0.596822   
O12      O      0.103200000000     0.723866666667     0.125000000000    -0.750252   
O13      O      0.163860000000     0.958600000000     0.414150000000    -0.59682    
O14      O      0.029660000000     0.953433333333     0.413750000000    -0.578433   
O15      O      0.063860000000     0.874733333333     0.335850000000    -0.59682    
O16      O      0.129660000000     0.879900000000     0.336250000000    -0.578433   
O17      O      0.036140000000     0.708066666667     0.164150000000    -0.596822   
O18      O      0.170340000000     0.713233333333     0.163750000000    -0.578435   
O19      O      0.196800000000     0.890533333333     0.375000000000    -0.750251   
O20      O      0.070340000000     0.786766666667     0.086250000000    -0.578435   
V1       V      0.060140000000     0.744100000000     0.125000000000     1.81635    
V2       V      0.039860000000     0.910766666667     0.375000000000     1.81635    
V3       V      0.139860000000     0.922566666667     0.375000000000     1.81635    
V4       V      0.160140000000     0.755900000000     0.125000000000     1.81635    
C1       C      0.066000000000     0.821600000000     0.517500000000    -0.107365   
C2       C      0.197240000000     0.963866666667     0.928150000000     0.621827   
C3       C      0.164600000000     0.995366666667     0.982700000000    -0.106612   
C4       C      0.034000000000     0.988266666667     0.982500000000    -0.107366   
C5       C      0.102760000000     0.797200000000     0.571850000000     0.621829   
C6       C      0.101440000000     0.817433333333     0.534850000000    -0.016705   
C7       C      0.135400000000     0.828700000000     0.517300000000    -0.106604   
C8       C      0.197240000000     0.963866666667     0.821850000000     0.621828   
C9       C      0.198560000000     0.984100000000     0.784850000000    -0.016711   
C10      C      0.164600000000     0.995366666667     0.767300000000    -0.106603   
C11      C      0.034000000000     0.988266666667     0.767500000000    -0.107359   
C12      C      0.134000000000     0.845066666667     0.767500000000    -0.107365   
C13      C      0.102760000000     0.797200000000     0.678150000000     0.621828   
C14      C      0.135400000000     0.828700000000     0.732700000000    -0.106606   
C15      C      0.066000000000     0.821600000000     0.732500000000    -0.107364   
C16      C      0.002760000000     0.702800000000     0.571850000000     0.621829   
C17      C      0.001440000000     0.682566666667     0.534850000000    -0.016711   
C18      C      0.035400000000     0.671300000000     0.517300000000    -0.106597   
C19      C      0.166000000000     0.678400000000     0.517500000000    -0.107354   
C20      C      0.097240000000     0.869466666667     0.928150000000     0.621828   
C21      C      0.098560000000     0.849233333333     0.965150000000    -0.016712   
C22      C      0.064600000000     0.837966666667     0.982700000000    -0.106598   
C23      C      0.134000000000     0.845066666667     0.982500000000    -0.107356   
C24      C      0.101440000000     0.817433333333     0.715150000000    -0.016699   
C25      C      0.064600000000     0.837966666667     0.767300000000    -0.106607   
C26      C      0.198560000000     0.984100000000     0.965150000000    -0.016699   
C27      C      0.097240000000     0.869466666667     0.821850000000     0.621827   
C28      C      0.166000000000     0.678400000000     0.732500000000    -0.10736    
C29      C      0.035400000000     0.671300000000     0.732700000000    -0.106607   
C30      C      0.001440000000     0.682566666667     0.715150000000    -0.016699   
C31      C      0.002760000000     0.702800000000     0.678150000000     0.621828   
C32      C      0.098560000000     0.849233333333     0.784850000000    -0.0167     
H1       H      0.059480000000     0.674666666667     0.721050000000     0.12541    
H2       H      0.142820000000     0.686633333333     0.720800000000     0.12564    
H3       H      0.040520000000     0.841333333333     0.778950000000     0.125409   
H4       H      0.157180000000     0.853300000000     0.779200000000     0.12564    
H5       H      0.140520000000     0.992000000000     0.971050000000     0.12541    
H6       H      0.057180000000     0.980033333333     0.970800000000     0.12564    
H7       H      0.042820000000     0.813366666667     0.529200000000     0.125641   
H8       H      0.140520000000     0.992000000000     0.778950000000     0.125409   
H9       H      0.159480000000     0.825333333333     0.528950000000     0.125409   
H10      H      0.159480000000     0.825333333333     0.721050000000     0.12541    
H11      H      0.042820000000     0.813366666667     0.720800000000     0.125641   
H12      H      0.059480000000     0.674666666667     0.528950000000     0.125409   
H13      H      0.142820000000     0.686633333333     0.529200000000     0.12564    
H14      H      0.040520000000     0.841333333333     0.971050000000     0.125409   
H15      H      0.157180000000     0.853300000000     0.970800000000     0.12564    
H16      H      0.057180000000     0.980033333333     0.779200000000     0.12564    
O1       O      0.163860000000     0.958600000000     0.835850000000    -0.596821   
O2       O      0.070340000000     0.786766666667     0.663750000000    -0.578435   
O3       O      0.136140000000     0.791933333333     0.664150000000    -0.596822   
O4       O      0.170340000000     0.713233333333     0.586250000000    -0.578436   
O5       O      0.063860000000     0.874733333333     0.914150000000    -0.596821   
O6       O      0.096800000000     0.942800000000     0.875000000000    -0.750251   
O7       O      0.003200000000     0.776133333333     0.625000000000    -0.750252   
O8       O      0.029660000000     0.953433333333     0.836250000000    -0.578434   
O9       O      0.129660000000     0.879900000000     0.913750000000    -0.578434   
O10      O      0.036140000000     0.708066666667     0.585850000000    -0.596822   
O11      O      0.136140000000     0.791933333333     0.585850000000    -0.596822   
O12      O      0.103200000000     0.723866666667     0.625000000000    -0.750252   
O13      O      0.163860000000     0.958600000000     0.914150000000    -0.59682    
O14      O      0.029660000000     0.953433333333     0.913750000000    -0.578433   
O15      O      0.063860000000     0.874733333333     0.835850000000    -0.59682    
O16      O      0.129660000000     0.879900000000     0.836250000000    -0.578433   
O17      O      0.036140000000     0.708066666667     0.664150000000    -0.596822   
O18      O      0.170340000000     0.713233333333     0.663750000000    -0.578435   
O19      O      0.196800000000     0.890533333333     0.875000000000    -0.750251   
O20      O      0.070340000000     0.786766666667     0.586250000000    -0.578435   
V1       V      0.060140000000     0.744100000000     0.625000000000     1.81635    
V2       V      0.039860000000     0.910766666667     0.875000000000     1.81635    
V3       V      0.139860000000     0.922566666667     0.875000000000     1.81635    
V4       V      0.160140000000     0.755900000000     0.625000000000     1.81635    
C1       C      0.266000000000     0.154933333333     0.017500000000    -0.107365   
C2       C      0.397240000000     0.297200000000     0.428150000000     0.621827   
C3       C      0.364600000000     0.328700000000     0.482700000000    -0.106612   
C4       C      0.234000000000     0.321600000000     0.482500000000    -0.107366   
C5       C      0.302760000000     0.130533333333     0.071850000000     0.621829   
C6       C      0.301440000000     0.150766666667     0.034850000000    -0.016705   
C7       C      0.335400000000     0.162033333333     0.017300000000    -0.106604   
C8       C      0.397240000000     0.297200000000     0.321850000000     0.621828   
C9       C      0.398560000000     0.317433333333     0.284850000000    -0.016711   
C10      C      0.364600000000     0.328700000000     0.267300000000    -0.106603   
C11      C      0.234000000000     0.321600000000     0.267500000000    -0.107359   
C12      C      0.334000000000     0.178400000000     0.267500000000    -0.107365   
C13      C      0.302760000000     0.130533333333     0.178150000000     0.621828   
C14      C      0.335400000000     0.162033333333     0.232700000000    -0.106606   
C15      C      0.266000000000     0.154933333333     0.232500000000    -0.107364   
C16      C      0.202760000000     0.036133333333     0.071850000000     0.621829   
C17      C      0.201440000000     0.015900000000     0.034850000000    -0.016711   
C18      C      0.235400000000     0.004633333333     0.017300000000    -0.106597   
C19      C      0.366000000000     0.011733333333     0.017500000000    -0.107354   
C20      C      0.297240000000     0.202800000000     0.428150000000     0.621828   
C21      C      0.298560000000     0.182566666667     0.465150000000    -0.016712   
C22      C      0.264600000000     0.171300000000     0.482700000000    -0.106598   
C23      C      0.334000000000     0.178400000000     0.482500000000    -0.107356   
C24      C      0.301440000000     0.150766666667     0.215150000000    -0.016699   
C25      C      0.264600000000     0.171300000000     0.267300000000    -0.106607   
C26      C      0.398560000000     0.317433333333     0.465150000000    -0.016699   
C27      C      0.297240000000     0.202800000000     0.321850000000     0.621827   
C28      C      0.366000000000     0.011733333333     0.232500000000    -0.10736    
C29      C      0.235400000000     0.004633333333     0.232700000000    -0.106607   
C30      C      0.201440000000     0.015900000000     0.215150000000    -0.016699   
C31      C      0.202760000000     0.036133333333     0.178150000000     0.621828   
C32      C      0.298560000000     0.182566666667     0.284850000000    -0.0167     
H1       H      0.259480000000     0.008000000000     0.221050000000     0.12541    
H2       H      0.342820000000     0.019966666667     0.220800000000     0.12564    
H3       H      0.240520000000     0.174666666667     0.278950000000     0.125409   
H4       H      0.357180000000     0.186633333333     0.279200000000     0.12564    
H5       H      0.340520000000     0.325333333333     0.471050000000     0.12541    
H6       H      0.257180000000     0.313366666667     0.470800000000     0.12564    
H7       H      0.242820000000     0.146700000000     0.029200000000     0.125641   
H8       H      0.340520000000     0.325333333333     0.278950000000     0.125409   
H9       H      0.359480000000     0.158666666667     0.028950000000     0.125409   
H10      H      0.359480000000     0.158666666667     0.221050000000     0.12541    
H11      H      0.242820000000     0.146700000000     0.220800000000     0.125641   
H12      H      0.259480000000     0.008000000000     0.028950000000     0.125409   
H13      H      0.342820000000     0.019966666667     0.029200000000     0.12564    
H14      H      0.240520000000     0.174666666667     0.471050000000     0.125409   
H15      H      0.357180000000     0.186633333333     0.470800000000     0.12564    
H16      H      0.257180000000     0.313366666667     0.279200000000     0.12564    
O1       O      0.363860000000     0.291933333333     0.335850000000    -0.596821   
O2       O      0.270340000000     0.120100000000     0.163750000000    -0.578435   
O3       O      0.336140000000     0.125266666667     0.164150000000    -0.596822   
O4       O      0.370340000000     0.046566666667     0.086250000000    -0.578436   
O5       O      0.263860000000     0.208066666667     0.414150000000    -0.596821   
O6       O      0.296800000000     0.276133333333     0.375000000000    -0.750251   
O7       O      0.203200000000     0.109466666667     0.125000000000    -0.750252   
O8       O      0.229660000000     0.286766666667     0.336250000000    -0.578434   
O9       O      0.329660000000     0.213233333333     0.413750000000    -0.578434   
O10      O      0.236140000000     0.041400000000     0.085850000000    -0.596822   
O11      O      0.336140000000     0.125266666667     0.085850000000    -0.596822   
O12      O      0.303200000000     0.057200000000     0.125000000000    -0.750252   
O13      O      0.363860000000     0.291933333333     0.414150000000    -0.59682    
O14      O      0.229660000000     0.286766666667     0.413750000000    -0.578433   
O15      O      0.263860000000     0.208066666667     0.335850000000    -0.59682    
O16      O      0.329660000000     0.213233333333     0.336250000000    -0.578433   
O17      O      0.236140000000     0.041400000000     0.164150000000    -0.596822   
O18      O      0.370340000000     0.046566666667     0.163750000000    -0.578435   
O19      O      0.396800000000     0.223866666667     0.375000000000    -0.750251   
O20      O      0.270340000000     0.120100000000     0.086250000000    -0.578435   
V1       V      0.260140000000     0.077433333333     0.125000000000     1.81635    
V2       V      0.239860000000     0.244100000000     0.375000000000     1.81635    
V3       V      0.339860000000     0.255900000000     0.375000000000     1.81635    
V4       V      0.360140000000     0.089233333333     0.125000000000     1.81635    
C1       C      0.266000000000     0.154933333333     0.517500000000    -0.107365   
C2       C      0.397240000000     0.297200000000     0.928150000000     0.621827   
C3       C      0.364600000000     0.328700000000     0.982700000000    -0.106612   
C4       C      0.234000000000     0.321600000000     0.982500000000    -0.107366   
C5       C      0.302760000000     0.130533333333     0.571850000000     0.621829   
C6       C      0.301440000000     0.150766666667     0.534850000000    -0.016705   
C7       C      0.335400000000     0.162033333333     0.517300000000    -0.106604   
C8       C      0.397240000000     0.297200000000     0.821850000000     0.621828   
C9       C      0.398560000000     0.317433333333     0.784850000000    -0.016711   
C10      C      0.364600000000     0.328700000000     0.767300000000    -0.106603   
C11      C      0.234000000000     0.321600000000     0.767500000000    -0.107359   
C12      C      0.334000000000     0.178400000000     0.767500000000    -0.107365   
C13      C      0.302760000000     0.130533333333     0.678150000000     0.621828   
C14      C      0.335400000000     0.162033333333     0.732700000000    -0.106606   
C15      C      0.266000000000     0.154933333333     0.732500000000    -0.107364   
C16      C      0.202760000000     0.036133333333     0.571850000000     0.621829   
C17      C      0.201440000000     0.015900000000     0.534850000000    -0.016711   
C18      C      0.235400000000     0.004633333333     0.517300000000    -0.106597   
C19      C      0.366000000000     0.011733333333     0.517500000000    -0.107354   
C20      C      0.297240000000     0.202800000000     0.928150000000     0.621828   
C21      C      0.298560000000     0.182566666667     0.965150000000    -0.016712   
C22      C      0.264600000000     0.171300000000     0.982700000000    -0.106598   
C23      C      0.334000000000     0.178400000000     0.982500000000    -0.107356   
C24      C      0.301440000000     0.150766666667     0.715150000000    -0.016699   
C25      C      0.264600000000     0.171300000000     0.767300000000    -0.106607   
C26      C      0.398560000000     0.317433333333     0.965150000000    -0.016699   
C27      C      0.297240000000     0.202800000000     0.821850000000     0.621827   
C28      C      0.366000000000     0.011733333333     0.732500000000    -0.10736    
C29      C      0.235400000000     0.004633333333     0.732700000000    -0.106607   
C30      C      0.201440000000     0.015900000000     0.715150000000    -0.016699   
C31      C      0.202760000000     0.036133333333     0.678150000000     0.621828   
C32      C      0.298560000000     0.182566666667     0.784850000000    -0.0167     
H1       H      0.259480000000     0.008000000000     0.721050000000     0.12541    
H2       H      0.342820000000     0.019966666667     0.720800000000     0.12564    
H3       H      0.240520000000     0.174666666667     0.778950000000     0.125409   
H4       H      0.357180000000     0.186633333333     0.779200000000     0.12564    
H5       H      0.340520000000     0.325333333333     0.971050000000     0.12541    
H6       H      0.257180000000     0.313366666667     0.970800000000     0.12564    
H7       H      0.242820000000     0.146700000000     0.529200000000     0.125641   
H8       H      0.340520000000     0.325333333333     0.778950000000     0.125409   
H9       H      0.359480000000     0.158666666667     0.528950000000     0.125409   
H10      H      0.359480000000     0.158666666667     0.721050000000     0.12541    
H11      H      0.242820000000     0.146700000000     0.720800000000     0.125641   
H12      H      0.259480000000     0.008000000000     0.528950000000     0.125409   
H13      H      0.342820000000     0.019966666667     0.529200000000     0.12564    
H14      H      0.240520000000     0.174666666667     0.971050000000     0.125409   
H15      H      0.357180000000     0.186633333333     0.970800000000     0.12564    
H16      H      0.257180000000     0.313366666667     0.779200000000     0.12564    
O1       O      0.363860000000     0.291933333333     0.835850000000    -0.596821   
O2       O      0.270340000000     0.120100000000     0.663750000000    -0.578435   
O3       O      0.336140000000     0.125266666667     0.664150000000    -0.596822   
O4       O      0.370340000000     0.046566666667     0.586250000000    -0.578436   
O5       O      0.263860000000     0.208066666667     0.914150000000    -0.596821   
O6       O      0.296800000000     0.276133333333     0.875000000000    -0.750251   
O7       O      0.203200000000     0.109466666667     0.625000000000    -0.750252   
O8       O      0.229660000000     0.286766666667     0.836250000000    -0.578434   
O9       O      0.329660000000     0.213233333333     0.913750000000    -0.578434   
O10      O      0.236140000000     0.041400000000     0.585850000000    -0.596822   
O11      O      0.336140000000     0.125266666667     0.585850000000    -0.596822   
O12      O      0.303200000000     0.057200000000     0.625000000000    -0.750252   
O13      O      0.363860000000     0.291933333333     0.914150000000    -0.59682    
O14      O      0.229660000000     0.286766666667     0.913750000000    -0.578433   
O15      O      0.263860000000     0.208066666667     0.835850000000    -0.59682    
O16      O      0.329660000000     0.213233333333     0.836250000000    -0.578433   
O17      O      0.236140000000     0.041400000000     0.664150000000    -0.596822   
O18      O      0.370340000000     0.046566666667     0.663750000000    -0.578435   
O19      O      0.396800000000     0.223866666667     0.875000000000    -0.750251   
O20      O      0.270340000000     0.120100000000     0.586250000000    -0.578435   
V1       V      0.260140000000     0.077433333333     0.625000000000     1.81635    
V2       V      0.239860000000     0.244100000000     0.875000000000     1.81635    
V3       V      0.339860000000     0.255900000000     0.875000000000     1.81635    
V4       V      0.360140000000     0.089233333333     0.625000000000     1.81635    
C1       C      0.266000000000     0.488266666667     0.017500000000    -0.107365   
C2       C      0.397240000000     0.630533333333     0.428150000000     0.621827   
C3       C      0.364600000000     0.662033333333     0.482700000000    -0.106612   
C4       C      0.234000000000     0.654933333333     0.482500000000    -0.107366   
C5       C      0.302760000000     0.463866666667     0.071850000000     0.621829   
C6       C      0.301440000000     0.484100000000     0.034850000000    -0.016705   
C7       C      0.335400000000     0.495366666667     0.017300000000    -0.106604   
C8       C      0.397240000000     0.630533333333     0.321850000000     0.621828   
C9       C      0.398560000000     0.650766666667     0.284850000000    -0.016711   
C10      C      0.364600000000     0.662033333333     0.267300000000    -0.106603   
C11      C      0.234000000000     0.654933333333     0.267500000000    -0.107359   
C12      C      0.334000000000     0.511733333333     0.267500000000    -0.107365   
C13      C      0.302760000000     0.463866666667     0.178150000000     0.621828   
C14      C      0.335400000000     0.495366666667     0.232700000000    -0.106606   
C15      C      0.266000000000     0.488266666667     0.232500000000    -0.107364   
C16      C      0.202760000000     0.369466666667     0.071850000000     0.621829   
C17      C      0.201440000000     0.349233333333     0.034850000000    -0.016711   
C18      C      0.235400000000     0.337966666667     0.017300000000    -0.106597   
C19      C      0.366000000000     0.345066666667     0.017500000000    -0.107354   
C20      C      0.297240000000     0.536133333333     0.428150000000     0.621828   
C21      C      0.298560000000     0.515900000000     0.465150000000    -0.016712   
C22      C      0.264600000000     0.504633333333     0.482700000000    -0.106598   
C23      C      0.334000000000     0.511733333333     0.482500000000    -0.107356   
C24      C      0.301440000000     0.484100000000     0.215150000000    -0.016699   
C25      C      0.264600000000     0.504633333333     0.267300000000    -0.106607   
C26      C      0.398560000000     0.650766666667     0.465150000000    -0.016699   
C27      C      0.297240000000     0.536133333333     0.321850000000     0.621827   
C28      C      0.366000000000     0.345066666667     0.232500000000    -0.10736    
C29      C      0.235400000000     0.337966666667     0.232700000000    -0.106607   
C30      C      0.201440000000     0.349233333333     0.215150000000    -0.016699   
C31      C      0.202760000000     0.369466666667     0.178150000000     0.621828   
C32      C      0.298560000000     0.515900000000     0.284850000000    -0.0167     
H1       H      0.259480000000     0.341333333333     0.221050000000     0.12541    
H2       H      0.342820000000     0.353300000000     0.220800000000     0.12564    
H3       H      0.240520000000     0.508000000000     0.278950000000     0.125409   
H4       H      0.357180000000     0.519966666667     0.279200000000     0.12564    
H5       H      0.340520000000     0.658666666667     0.471050000000     0.12541    
H6       H      0.257180000000     0.646700000000     0.470800000000     0.12564    
H7       H      0.242820000000     0.480033333333     0.029200000000     0.125641   
H8       H      0.340520000000     0.658666666667     0.278950000000     0.125409   
H9       H      0.359480000000     0.492000000000     0.028950000000     0.125409   
H10      H      0.359480000000     0.492000000000     0.221050000000     0.12541    
H11      H      0.242820000000     0.480033333333     0.220800000000     0.125641   
H12      H      0.259480000000     0.341333333333     0.028950000000     0.125409   
H13      H      0.342820000000     0.353300000000     0.029200000000     0.12564    
H14      H      0.240520000000     0.508000000000     0.471050000000     0.125409   
H15      H      0.357180000000     0.519966666667     0.470800000000     0.12564    
H16      H      0.257180000000     0.646700000000     0.279200000000     0.12564    
O1       O      0.363860000000     0.625266666667     0.335850000000    -0.596821   
O2       O      0.270340000000     0.453433333333     0.163750000000    -0.578435   
O3       O      0.336140000000     0.458600000000     0.164150000000    -0.596822   
O4       O      0.370340000000     0.379900000000     0.086250000000    -0.578436   
O5       O      0.263860000000     0.541400000000     0.414150000000    -0.596821   
O6       O      0.296800000000     0.609466666667     0.375000000000    -0.750251   
O7       O      0.203200000000     0.442800000000     0.125000000000    -0.750252   
O8       O      0.229660000000     0.620100000000     0.336250000000    -0.578434   
O9       O      0.329660000000     0.546566666667     0.413750000000    -0.578434   
O10      O      0.236140000000     0.374733333333     0.085850000000    -0.596822   
O11      O      0.336140000000     0.458600000000     0.085850000000    -0.596822   
O12      O      0.303200000000     0.390533333333     0.125000000000    -0.750252   
O13      O      0.363860000000     0.625266666667     0.414150000000    -0.59682    
O14      O      0.229660000000     0.620100000000     0.413750000000    -0.578433   
O15      O      0.263860000000     0.541400000000     0.335850000000    -0.59682    
O16      O      0.329660000000     0.546566666667     0.336250000000    -0.578433   
O17      O      0.236140000000     0.374733333333     0.164150000000    -0.596822   
O18      O      0.370340000000     0.379900000000     0.163750000000    -0.578435   
O19      O      0.396800000000     0.557200000000     0.375000000000    -0.750251   
O20      O      0.270340000000     0.453433333333     0.086250000000    -0.578435   
V1       V      0.260140000000     0.410766666667     0.125000000000     1.81635    
V2       V      0.239860000000     0.577433333333     0.375000000000     1.81635    
V3       V      0.339860000000     0.589233333333     0.375000000000     1.81635    
V4       V      0.360140000000     0.422566666667     0.125000000000     1.81635    
C1       C      0.266000000000     0.488266666667     0.517500000000    -0.107365   
C2       C      0.397240000000     0.630533333333     0.928150000000     0.621827   
C3       C      0.364600000000     0.662033333333     0.982700000000    -0.106612   
C4       C      0.234000000000     0.654933333333     0.982500000000    -0.107366   
C5       C      0.302760000000     0.463866666667     0.571850000000     0.621829   
C6       C      0.301440000000     0.484100000000     0.534850000000    -0.016705   
C7       C      0.335400000000     0.495366666667     0.517300000000    -0.106604   
C8       C      0.397240000000     0.630533333333     0.821850000000     0.621828   
C9       C      0.398560000000     0.650766666667     0.784850000000    -0.016711   
C10      C      0.364600000000     0.662033333333     0.767300000000    -0.106603   
C11      C      0.234000000000     0.654933333333     0.767500000000    -0.107359   
C12      C      0.334000000000     0.511733333333     0.767500000000    -0.107365   
C13      C      0.302760000000     0.463866666667     0.678150000000     0.621828   
C14      C      0.335400000000     0.495366666667     0.732700000000    -0.106606   
C15      C      0.266000000000     0.488266666667     0.732500000000    -0.107364   
C16      C      0.202760000000     0.369466666667     0.571850000000     0.621829   
C17      C      0.201440000000     0.349233333333     0.534850000000    -0.016711   
C18      C      0.235400000000     0.337966666667     0.517300000000    -0.106597   
C19      C      0.366000000000     0.345066666667     0.517500000000    -0.107354   
C20      C      0.297240000000     0.536133333333     0.928150000000     0.621828   
C21      C      0.298560000000     0.515900000000     0.965150000000    -0.016712   
C22      C      0.264600000000     0.504633333333     0.982700000000    -0.106598   
C23      C      0.334000000000     0.511733333333     0.982500000000    -0.107356   
C24      C      0.301440000000     0.484100000000     0.715150000000    -0.016699   
C25      C      0.264600000000     0.504633333333     0.767300000000    -0.106607   
C26      C      0.398560000000     0.650766666667     0.965150000000    -0.016699   
C27      C      0.297240000000     0.536133333333     0.821850000000     0.621827   
C28      C      0.366000000000     0.345066666667     0.732500000000    -0.10736    
C29      C      0.235400000000     0.337966666667     0.732700000000    -0.106607   
C30      C      0.201440000000     0.349233333333     0.715150000000    -0.016699   
C31      C      0.202760000000     0.369466666667     0.678150000000     0.621828   
C32      C      0.298560000000     0.515900000000     0.784850000000    -0.0167     
H1       H      0.259480000000     0.341333333333     0.721050000000     0.12541    
H2       H      0.342820000000     0.353300000000     0.720800000000     0.12564    
H3       H      0.240520000000     0.508000000000     0.778950000000     0.125409   
H4       H      0.357180000000     0.519966666667     0.779200000000     0.12564    
H5       H      0.340520000000     0.658666666667     0.971050000000     0.12541    
H6       H      0.257180000000     0.646700000000     0.970800000000     0.12564    
H7       H      0.242820000000     0.480033333333     0.529200000000     0.125641   
H8       H      0.340520000000     0.658666666667     0.778950000000     0.125409   
H9       H      0.359480000000     0.492000000000     0.528950000000     0.125409   
H10      H      0.359480000000     0.492000000000     0.721050000000     0.12541    
H11      H      0.242820000000     0.480033333333     0.720800000000     0.125641   
H12      H      0.259480000000     0.341333333333     0.528950000000     0.125409   
H13      H      0.342820000000     0.353300000000     0.529200000000     0.12564    
H14      H      0.240520000000     0.508000000000     0.971050000000     0.125409   
H15      H      0.357180000000     0.519966666667     0.970800000000     0.12564    
H16      H      0.257180000000     0.646700000000     0.779200000000     0.12564    
O1       O      0.363860000000     0.625266666667     0.835850000000    -0.596821   
O2       O      0.270340000000     0.453433333333     0.663750000000    -0.578435   
O3       O      0.336140000000     0.458600000000     0.664150000000    -0.596822   
O4       O      0.370340000000     0.379900000000     0.586250000000    -0.578436   
O5       O      0.263860000000     0.541400000000     0.914150000000    -0.596821   
O6       O      0.296800000000     0.609466666667     0.875000000000    -0.750251   
O7       O      0.203200000000     0.442800000000     0.625000000000    -0.750252   
O8       O      0.229660000000     0.620100000000     0.836250000000    -0.578434   
O9       O      0.329660000000     0.546566666667     0.913750000000    -0.578434   
O10      O      0.236140000000     0.374733333333     0.585850000000    -0.596822   
O11      O      0.336140000000     0.458600000000     0.585850000000    -0.596822   
O12      O      0.303200000000     0.390533333333     0.625000000000    -0.750252   
O13      O      0.363860000000     0.625266666667     0.914150000000    -0.59682    
O14      O      0.229660000000     0.620100000000     0.913750000000    -0.578433   
O15      O      0.263860000000     0.541400000000     0.835850000000    -0.59682    
O16      O      0.329660000000     0.546566666667     0.836250000000    -0.578433   
O17      O      0.236140000000     0.374733333333     0.664150000000    -0.596822   
O18      O      0.370340000000     0.379900000000     0.663750000000    -0.578435   
O19      O      0.396800000000     0.557200000000     0.875000000000    -0.750251   
O20      O      0.270340000000     0.453433333333     0.586250000000    -0.578435   
V1       V      0.260140000000     0.410766666667     0.625000000000     1.81635    
V2       V      0.239860000000     0.577433333333     0.875000000000     1.81635    
V3       V      0.339860000000     0.589233333333     0.875000000000     1.81635    
V4       V      0.360140000000     0.422566666667     0.625000000000     1.81635    
C1       C      0.266000000000     0.821600000000     0.017500000000    -0.107365   
C2       C      0.397240000000     0.963866666667     0.428150000000     0.621827   
C3       C      0.364600000000     0.995366666667     0.482700000000    -0.106612   
C4       C      0.234000000000     0.988266666667     0.482500000000    -0.107366   
C5       C      0.302760000000     0.797200000000     0.071850000000     0.621829   
C6       C      0.301440000000     0.817433333333     0.034850000000    -0.016705   
C7       C      0.335400000000     0.828700000000     0.017300000000    -0.106604   
C8       C      0.397240000000     0.963866666667     0.321850000000     0.621828   
C9       C      0.398560000000     0.984100000000     0.284850000000    -0.016711   
C10      C      0.364600000000     0.995366666667     0.267300000000    -0.106603   
C11      C      0.234000000000     0.988266666667     0.267500000000    -0.107359   
C12      C      0.334000000000     0.845066666667     0.267500000000    -0.107365   
C13      C      0.302760000000     0.797200000000     0.178150000000     0.621828   
C14      C      0.335400000000     0.828700000000     0.232700000000    -0.106606   
C15      C      0.266000000000     0.821600000000     0.232500000000    -0.107364   
C16      C      0.202760000000     0.702800000000     0.071850000000     0.621829   
C17      C      0.201440000000     0.682566666667     0.034850000000    -0.016711   
C18      C      0.235400000000     0.671300000000     0.017300000000    -0.106597   
C19      C      0.366000000000     0.678400000000     0.017500000000    -0.107354   
C20      C      0.297240000000     0.869466666667     0.428150000000     0.621828   
C21      C      0.298560000000     0.849233333333     0.465150000000    -0.016712   
C22      C      0.264600000000     0.837966666667     0.482700000000    -0.106598   
C23      C      0.334000000000     0.845066666667     0.482500000000    -0.107356   
C24      C      0.301440000000     0.817433333333     0.215150000000    -0.016699   
C25      C      0.264600000000     0.837966666667     0.267300000000    -0.106607   
C26      C      0.398560000000     0.984100000000     0.465150000000    -0.016699   
C27      C      0.297240000000     0.869466666667     0.321850000000     0.621827   
C28      C      0.366000000000     0.678400000000     0.232500000000    -0.10736    
C29      C      0.235400000000     0.671300000000     0.232700000000    -0.106607   
C30      C      0.201440000000     0.682566666667     0.215150000000    -0.016699   
C31      C      0.202760000000     0.702800000000     0.178150000000     0.621828   
C32      C      0.298560000000     0.849233333333     0.284850000000    -0.0167     
H1       H      0.259480000000     0.674666666667     0.221050000000     0.12541    
H2       H      0.342820000000     0.686633333333     0.220800000000     0.12564    
H3       H      0.240520000000     0.841333333333     0.278950000000     0.125409   
H4       H      0.357180000000     0.853300000000     0.279200000000     0.12564    
H5       H      0.340520000000     0.992000000000     0.471050000000     0.12541    
H6       H      0.257180000000     0.980033333333     0.470800000000     0.12564    
H7       H      0.242820000000     0.813366666667     0.029200000000     0.125641   
H8       H      0.340520000000     0.992000000000     0.278950000000     0.125409   
H9       H      0.359480000000     0.825333333333     0.028950000000     0.125409   
H10      H      0.359480000000     0.825333333333     0.221050000000     0.12541    
H11      H      0.242820000000     0.813366666667     0.220800000000     0.125641   
H12      H      0.259480000000     0.674666666667     0.028950000000     0.125409   
H13      H      0.342820000000     0.686633333333     0.029200000000     0.12564    
H14      H      0.240520000000     0.841333333333     0.471050000000     0.125409   
H15      H      0.357180000000     0.853300000000     0.470800000000     0.12564    
H16      H      0.257180000000     0.980033333333     0.279200000000     0.12564    
O1       O      0.363860000000     0.958600000000     0.335850000000    -0.596821   
O2       O      0.270340000000     0.786766666667     0.163750000000    -0.578435   
O3       O      0.336140000000     0.791933333333     0.164150000000    -0.596822   
O4       O      0.370340000000     0.713233333333     0.086250000000    -0.578436   
O5       O      0.263860000000     0.874733333333     0.414150000000    -0.596821   
O6       O      0.296800000000     0.942800000000     0.375000000000    -0.750251   
O7       O      0.203200000000     0.776133333333     0.125000000000    -0.750252   
O8       O      0.229660000000     0.953433333333     0.336250000000    -0.578434   
O9       O      0.329660000000     0.879900000000     0.413750000000    -0.578434   
O10      O      0.236140000000     0.708066666667     0.085850000000    -0.596822   
O11      O      0.336140000000     0.791933333333     0.085850000000    -0.596822   
O12      O      0.303200000000     0.723866666667     0.125000000000    -0.750252   
O13      O      0.363860000000     0.958600000000     0.414150000000    -0.59682    
O14      O      0.229660000000     0.953433333333     0.413750000000    -0.578433   
O15      O      0.263860000000     0.874733333333     0.335850000000    -0.59682    
O16      O      0.329660000000     0.879900000000     0.336250000000    -0.578433   
O17      O      0.236140000000     0.708066666667     0.164150000000    -0.596822   
O18      O      0.370340000000     0.713233333333     0.163750000000    -0.578435   
O19      O      0.396800000000     0.890533333333     0.375000000000    -0.750251   
O20      O      0.270340000000     0.786766666667     0.086250000000    -0.578435   
V1       V      0.260140000000     0.744100000000     0.125000000000     1.81635    
V2       V      0.239860000000     0.910766666667     0.375000000000     1.81635    
V3       V      0.339860000000     0.922566666667     0.375000000000     1.81635    
V4       V      0.360140000000     0.755900000000     0.125000000000     1.81635    
C1       C      0.266000000000     0.821600000000     0.517500000000    -0.107365   
C2       C      0.397240000000     0.963866666667     0.928150000000     0.621827   
C3       C      0.364600000000     0.995366666667     0.982700000000    -0.106612   
C4       C      0.234000000000     0.988266666667     0.982500000000    -0.107366   
C5       C      0.302760000000     0.797200000000     0.571850000000     0.621829   
C6       C      0.301440000000     0.817433333333     0.534850000000    -0.016705   
C7       C      0.335400000000     0.828700000000     0.517300000000    -0.106604   
C8       C      0.397240000000     0.963866666667     0.821850000000     0.621828   
C9       C      0.398560000000     0.984100000000     0.784850000000    -0.016711   
C10      C      0.364600000000     0.995366666667     0.767300000000    -0.106603   
C11      C      0.234000000000     0.988266666667     0.767500000000    -0.107359   
C12      C      0.334000000000     0.845066666667     0.767500000000    -0.107365   
C13      C      0.302760000000     0.797200000000     0.678150000000     0.621828   
C14      C      0.335400000000     0.828700000000     0.732700000000    -0.106606   
C15      C      0.266000000000     0.821600000000     0.732500000000    -0.107364   
C16      C      0.202760000000     0.702800000000     0.571850000000     0.621829   
C17      C      0.201440000000     0.682566666667     0.534850000000    -0.016711   
C18      C      0.235400000000     0.671300000000     0.517300000000    -0.106597   
C19      C      0.366000000000     0.678400000000     0.517500000000    -0.107354   
C20      C      0.297240000000     0.869466666667     0.928150000000     0.621828   
C21      C      0.298560000000     0.849233333333     0.965150000000    -0.016712   
C22      C      0.264600000000     0.837966666667     0.982700000000    -0.106598   
C23      C      0.334000000000     0.845066666667     0.982500000000    -0.107356   
C24      C      0.301440000000     0.817433333333     0.715150000000    -0.016699   
C25      C      0.264600000000     0.837966666667     0.767300000000    -0.106607   
C26      C      0.398560000000     0.984100000000     0.965150000000    -0.016699   
C27      C      0.297240000000     0.869466666667     0.821850000000     0.621827   
C28      C      0.366000000000     0.678400000000     0.732500000000    -0.10736    
C29      C      0.235400000000     0.671300000000     0.732700000000    -0.106607   
C30      C      0.201440000000     0.682566666667     0.715150000000    -0.016699   
C31      C      0.202760000000     0.702800000000     0.678150000000     0.621828   
C32      C      0.298560000000     0.849233333333     0.784850000000    -0.0167     
H1       H      0.259480000000     0.674666666667     0.721050000000     0.12541    
H2       H      0.342820000000     0.686633333333     0.720800000000     0.12564    
H3       H      0.240520000000     0.841333333333     0.778950000000     0.125409   
H4       H      0.357180000000     0.853300000000     0.779200000000     0.12564    
H5       H      0.340520000000     0.992000000000     0.971050000000     0.12541    
H6       H      0.257180000000     0.980033333333     0.970800000000     0.12564    
H7       H      0.242820000000     0.813366666667     0.529200000000     0.125641   
H8       H      0.340520000000     0.992000000000     0.778950000000     0.125409   
H9       H      0.359480000000     0.825333333333     0.528950000000     0.125409   
H10      H      0.359480000000     0.825333333333     0.721050000000     0.12541    
H11      H      0.242820000000     0.813366666667     0.720800000000     0.125641   
H12      H      0.259480000000     0.674666666667     0.528950000000     0.125409   
H13      H      0.342820000000     0.686633333333     0.529200000000     0.12564    
H14      H      0.240520000000     0.841333333333     0.971050000000     0.125409   
H15      H      0.357180000000     0.853300000000     0.970800000000     0.12564    
H16      H      0.257180000000     0.980033333333     0.779200000000     0.12564    
O1       O      0.363860000000     0.958600000000     0.835850000000    -0.596821   
O2       O      0.270340000000     0.786766666667     0.663750000000    -0.578435   
O3       O      0.336140000000     0.791933333333     0.664150000000    -0.596822   
O4       O      0.370340000000     0.713233333333     0.586250000000    -0.578436   
O5       O      0.263860000000     0.874733333333     0.914150000000    -0.596821   
O6       O      0.296800000000     0.942800000000     0.875000000000    -0.750251   
O7       O      0.203200000000     0.776133333333     0.625000000000    -0.750252   
O8       O      0.229660000000     0.953433333333     0.836250000000    -0.578434   
O9       O      0.329660000000     0.879900000000     0.913750000000    -0.578434   
O10      O      0.236140000000     0.708066666667     0.585850000000    -0.596822   
O11      O      0.336140000000     0.791933333333     0.585850000000    -0.596822   
O12      O      0.303200000000     0.723866666667     0.625000000000    -0.750252   
O13      O      0.363860000000     0.958600000000     0.914150000000    -0.59682    
O14      O      0.229660000000     0.953433333333     0.913750000000    -0.578433   
O15      O      0.263860000000     0.874733333333     0.835850000000    -0.59682    
O16      O      0.329660000000     0.879900000000     0.836250000000    -0.578433   
O17      O      0.236140000000     0.708066666667     0.664150000000    -0.596822   
O18      O      0.370340000000     0.713233333333     0.663750000000    -0.578435   
O19      O      0.396800000000     0.890533333333     0.875000000000    -0.750251   
O20      O      0.270340000000     0.786766666667     0.586250000000    -0.578435   
V1       V      0.260140000000     0.744100000000     0.625000000000     1.81635    
V2       V      0.239860000000     0.910766666667     0.875000000000     1.81635    
V3       V      0.339860000000     0.922566666667     0.875000000000     1.81635    
V4       V      0.360140000000     0.755900000000     0.625000000000     1.81635    
C1       C      0.466000000000     0.154933333333     0.017500000000    -0.107365   
C2       C      0.597240000000     0.297200000000     0.428150000000     0.621827   
C3       C      0.564600000000     0.328700000000     0.482700000000    -0.106612   
C4       C      0.434000000000     0.321600000000     0.482500000000    -0.107366   
C5       C      0.502760000000     0.130533333333     0.071850000000     0.621829   
C6       C      0.501440000000     0.150766666667     0.034850000000    -0.016705   
C7       C      0.535400000000     0.162033333333     0.017300000000    -0.106604   
C8       C      0.597240000000     0.297200000000     0.321850000000     0.621828   
C9       C      0.598560000000     0.317433333333     0.284850000000    -0.016711   
C10      C      0.564600000000     0.328700000000     0.267300000000    -0.106603   
C11      C      0.434000000000     0.321600000000     0.267500000000    -0.107359   
C12      C      0.534000000000     0.178400000000     0.267500000000    -0.107365   
C13      C      0.502760000000     0.130533333333     0.178150000000     0.621828   
C14      C      0.535400000000     0.162033333333     0.232700000000    -0.106606   
C15      C      0.466000000000     0.154933333333     0.232500000000    -0.107364   
C16      C      0.402760000000     0.036133333333     0.071850000000     0.621829   
C17      C      0.401440000000     0.015900000000     0.034850000000    -0.016711   
C18      C      0.435400000000     0.004633333333     0.017300000000    -0.106597   
C19      C      0.566000000000     0.011733333333     0.017500000000    -0.107354   
C20      C      0.497240000000     0.202800000000     0.428150000000     0.621828   
C21      C      0.498560000000     0.182566666667     0.465150000000    -0.016712   
C22      C      0.464600000000     0.171300000000     0.482700000000    -0.106598   
C23      C      0.534000000000     0.178400000000     0.482500000000    -0.107356   
C24      C      0.501440000000     0.150766666667     0.215150000000    -0.016699   
C25      C      0.464600000000     0.171300000000     0.267300000000    -0.106607   
C26      C      0.598560000000     0.317433333333     0.465150000000    -0.016699   
C27      C      0.497240000000     0.202800000000     0.321850000000     0.621827   
C28      C      0.566000000000     0.011733333333     0.232500000000    -0.10736    
C29      C      0.435400000000     0.004633333333     0.232700000000    -0.106607   
C30      C      0.401440000000     0.015900000000     0.215150000000    -0.016699   
C31      C      0.402760000000     0.036133333333     0.178150000000     0.621828   
C32      C      0.498560000000     0.182566666667     0.284850000000    -0.0167     
H1       H      0.459480000000     0.008000000000     0.221050000000     0.12541    
H2       H      0.542820000000     0.019966666667     0.220800000000     0.12564    
H3       H      0.440520000000     0.174666666667     0.278950000000     0.125409   
H4       H      0.557180000000     0.186633333333     0.279200000000     0.12564    
H5       H      0.540520000000     0.325333333333     0.471050000000     0.12541    
H6       H      0.457180000000     0.313366666667     0.470800000000     0.12564    
H7       H      0.442820000000     0.146700000000     0.029200000000     0.125641   
H8       H      0.540520000000     0.325333333333     0.278950000000     0.125409   
H9       H      0.559480000000     0.158666666667     0.028950000000     0.125409   
H10      H      0.559480000000     0.158666666667     0.221050000000     0.12541    
H11      H      0.442820000000     0.146700000000     0.220800000000     0.125641   
H12      H      0.459480000000     0.008000000000     0.028950000000     0.125409   
H13      H      0.542820000000     0.019966666667     0.029200000000     0.12564    
H14      H      0.440520000000     0.174666666667     0.471050000000     0.125409   
H15      H      0.557180000000     0.186633333333     0.470800000000     0.12564    
H16      H      0.457180000000     0.313366666667     0.279200000000     0.12564    
O1       O      0.563860000000     0.291933333333     0.335850000000    -0.596821   
O2       O      0.470340000000     0.120100000000     0.163750000000    -0.578435   
O3       O      0.536140000000     0.125266666667     0.164150000000    -0.596822   
O4       O      0.570340000000     0.046566666667     0.086250000000    -0.578436   
O5       O      0.463860000000     0.208066666667     0.414150000000    -0.596821   
O6       O      0.496800000000     0.276133333333     0.375000000000    -0.750251   
O7       O      0.403200000000     0.109466666667     0.125000000000    -0.750252   
O8       O      0.429660000000     0.286766666667     0.336250000000    -0.578434   
O9       O      0.529660000000     0.213233333333     0.413750000000    -0.578434   
O10      O      0.436140000000     0.041400000000     0.085850000000    -0.596822   
O11      O      0.536140000000     0.125266666667     0.085850000000    -0.596822   
O12      O      0.503200000000     0.057200000000     0.125000000000    -0.750252   
O13      O      0.563860000000     0.291933333333     0.414150000000    -0.59682    
O14      O      0.429660000000     0.286766666667     0.413750000000    -0.578433   
O15      O      0.463860000000     0.208066666667     0.335850000000    -0.59682    
O16      O      0.529660000000     0.213233333333     0.336250000000    -0.578433   
O17      O      0.436140000000     0.041400000000     0.164150000000    -0.596822   
O18      O      0.570340000000     0.046566666667     0.163750000000    -0.578435   
O19      O      0.596800000000     0.223866666667     0.375000000000    -0.750251   
O20      O      0.470340000000     0.120100000000     0.086250000000    -0.578435   
V1       V      0.460140000000     0.077433333333     0.125000000000     1.81635    
V2       V      0.439860000000     0.244100000000     0.375000000000     1.81635    
V3       V      0.539860000000     0.255900000000     0.375000000000     1.81635    
V4       V      0.560140000000     0.089233333333     0.125000000000     1.81635    
C1       C      0.466000000000     0.154933333333     0.517500000000    -0.107365   
C2       C      0.597240000000     0.297200000000     0.928150000000     0.621827   
C3       C      0.564600000000     0.328700000000     0.982700000000    -0.106612   
C4       C      0.434000000000     0.321600000000     0.982500000000    -0.107366   
C5       C      0.502760000000     0.130533333333     0.571850000000     0.621829   
C6       C      0.501440000000     0.150766666667     0.534850000000    -0.016705   
C7       C      0.535400000000     0.162033333333     0.517300000000    -0.106604   
C8       C      0.597240000000     0.297200000000     0.821850000000     0.621828   
C9       C      0.598560000000     0.317433333333     0.784850000000    -0.016711   
C10      C      0.564600000000     0.328700000000     0.767300000000    -0.106603   
C11      C      0.434000000000     0.321600000000     0.767500000000    -0.107359   
C12      C      0.534000000000     0.178400000000     0.767500000000    -0.107365   
C13      C      0.502760000000     0.130533333333     0.678150000000     0.621828   
C14      C      0.535400000000     0.162033333333     0.732700000000    -0.106606   
C15      C      0.466000000000     0.154933333333     0.732500000000    -0.107364   
C16      C      0.402760000000     0.036133333333     0.571850000000     0.621829   
C17      C      0.401440000000     0.015900000000     0.534850000000    -0.016711   
C18      C      0.435400000000     0.004633333333     0.517300000000    -0.106597   
C19      C      0.566000000000     0.011733333333     0.517500000000    -0.107354   
C20      C      0.497240000000     0.202800000000     0.928150000000     0.621828   
C21      C      0.498560000000     0.182566666667     0.965150000000    -0.016712   
C22      C      0.464600000000     0.171300000000     0.982700000000    -0.106598   
C23      C      0.534000000000     0.178400000000     0.982500000000    -0.107356   
C24      C      0.501440000000     0.150766666667     0.715150000000    -0.016699   
C25      C      0.464600000000     0.171300000000     0.767300000000    -0.106607   
C26      C      0.598560000000     0.317433333333     0.965150000000    -0.016699   
C27      C      0.497240000000     0.202800000000     0.821850000000     0.621827   
C28      C      0.566000000000     0.011733333333     0.732500000000    -0.10736    
C29      C      0.435400000000     0.004633333333     0.732700000000    -0.106607   
C30      C      0.401440000000     0.015900000000     0.715150000000    -0.016699   
C31      C      0.402760000000     0.036133333333     0.678150000000     0.621828   
C32      C      0.498560000000     0.182566666667     0.784850000000    -0.0167     
H1       H      0.459480000000     0.008000000000     0.721050000000     0.12541    
H2       H      0.542820000000     0.019966666667     0.720800000000     0.12564    
H3       H      0.440520000000     0.174666666667     0.778950000000     0.125409   
H4       H      0.557180000000     0.186633333333     0.779200000000     0.12564    
H5       H      0.540520000000     0.325333333333     0.971050000000     0.12541    
H6       H      0.457180000000     0.313366666667     0.970800000000     0.12564    
H7       H      0.442820000000     0.146700000000     0.529200000000     0.125641   
H8       H      0.540520000000     0.325333333333     0.778950000000     0.125409   
H9       H      0.559480000000     0.158666666667     0.528950000000     0.125409   
H10      H      0.559480000000     0.158666666667     0.721050000000     0.12541    
H11      H      0.442820000000     0.146700000000     0.720800000000     0.125641   
H12      H      0.459480000000     0.008000000000     0.528950000000     0.125409   
H13      H      0.542820000000     0.019966666667     0.529200000000     0.12564    
H14      H      0.440520000000     0.174666666667     0.971050000000     0.125409   
H15      H      0.557180000000     0.186633333333     0.970800000000     0.12564    
H16      H      0.457180000000     0.313366666667     0.779200000000     0.12564    
O1       O      0.563860000000     0.291933333333     0.835850000000    -0.596821   
O2       O      0.470340000000     0.120100000000     0.663750000000    -0.578435   
O3       O      0.536140000000     0.125266666667     0.664150000000    -0.596822   
O4       O      0.570340000000     0.046566666667     0.586250000000    -0.578436   
O5       O      0.463860000000     0.208066666667     0.914150000000    -0.596821   
O6       O      0.496800000000     0.276133333333     0.875000000000    -0.750251   
O7       O      0.403200000000     0.109466666667     0.625000000000    -0.750252   
O8       O      0.429660000000     0.286766666667     0.836250000000    -0.578434   
O9       O      0.529660000000     0.213233333333     0.913750000000    -0.578434   
O10      O      0.436140000000     0.041400000000     0.585850000000    -0.596822   
O11      O      0.536140000000     0.125266666667     0.585850000000    -0.596822   
O12      O      0.503200000000     0.057200000000     0.625000000000    -0.750252   
O13      O      0.563860000000     0.291933333333     0.914150000000    -0.59682    
O14      O      0.429660000000     0.286766666667     0.913750000000    -0.578433   
O15      O      0.463860000000     0.208066666667     0.835850000000    -0.59682    
O16      O      0.529660000000     0.213233333333     0.836250000000    -0.578433   
O17      O      0.436140000000     0.041400000000     0.664150000000    -0.596822   
O18      O      0.570340000000     0.046566666667     0.663750000000    -0.578435   
O19      O      0.596800000000     0.223866666667     0.875000000000    -0.750251   
O20      O      0.470340000000     0.120100000000     0.586250000000    -0.578435   
V1       V      0.460140000000     0.077433333333     0.625000000000     1.81635    
V2       V      0.439860000000     0.244100000000     0.875000000000     1.81635    
V3       V      0.539860000000     0.255900000000     0.875000000000     1.81635    
V4       V      0.560140000000     0.089233333333     0.625000000000     1.81635    
C1       C      0.466000000000     0.488266666667     0.017500000000    -0.107365   
C2       C      0.597240000000     0.630533333333     0.428150000000     0.621827   
C3       C      0.564600000000     0.662033333333     0.482700000000    -0.106612   
C4       C      0.434000000000     0.654933333333     0.482500000000    -0.107366   
C5       C      0.502760000000     0.463866666667     0.071850000000     0.621829   
C6       C      0.501440000000     0.484100000000     0.034850000000    -0.016705   
C7       C      0.535400000000     0.495366666667     0.017300000000    -0.106604   
C8       C      0.597240000000     0.630533333333     0.321850000000     0.621828   
C9       C      0.598560000000     0.650766666667     0.284850000000    -0.016711   
C10      C      0.564600000000     0.662033333333     0.267300000000    -0.106603   
C11      C      0.434000000000     0.654933333333     0.267500000000    -0.107359   
C12      C      0.534000000000     0.511733333333     0.267500000000    -0.107365   
C13      C      0.502760000000     0.463866666667     0.178150000000     0.621828   
C14      C      0.535400000000     0.495366666667     0.232700000000    -0.106606   
C15      C      0.466000000000     0.488266666667     0.232500000000    -0.107364   
C16      C      0.402760000000     0.369466666667     0.071850000000     0.621829   
C17      C      0.401440000000     0.349233333333     0.034850000000    -0.016711   
C18      C      0.435400000000     0.337966666667     0.017300000000    -0.106597   
C19      C      0.566000000000     0.345066666667     0.017500000000    -0.107354   
C20      C      0.497240000000     0.536133333333     0.428150000000     0.621828   
C21      C      0.498560000000     0.515900000000     0.465150000000    -0.016712   
C22      C      0.464600000000     0.504633333333     0.482700000000    -0.106598   
C23      C      0.534000000000     0.511733333333     0.482500000000    -0.107356   
C24      C      0.501440000000     0.484100000000     0.215150000000    -0.016699   
C25      C      0.464600000000     0.504633333333     0.267300000000    -0.106607   
C26      C      0.598560000000     0.650766666667     0.465150000000    -0.016699   
C27      C      0.497240000000     0.536133333333     0.321850000000     0.621827   
C28      C      0.566000000000     0.345066666667     0.232500000000    -0.10736    
C29      C      0.435400000000     0.337966666667     0.232700000000    -0.106607   
C30      C      0.401440000000     0.349233333333     0.215150000000    -0.016699   
C31      C      0.402760000000     0.369466666667     0.178150000000     0.621828   
C32      C      0.498560000000     0.515900000000     0.284850000000    -0.0167     
H1       H      0.459480000000     0.341333333333     0.221050000000     0.12541    
H2       H      0.542820000000     0.353300000000     0.220800000000     0.12564    
H3       H      0.440520000000     0.508000000000     0.278950000000     0.125409   
H4       H      0.557180000000     0.519966666667     0.279200000000     0.12564    
H5       H      0.540520000000     0.658666666667     0.471050000000     0.12541    
H6       H      0.457180000000     0.646700000000     0.470800000000     0.12564    
H7       H      0.442820000000     0.480033333333     0.029200000000     0.125641   
H8       H      0.540520000000     0.658666666667     0.278950000000     0.125409   
H9       H      0.559480000000     0.492000000000     0.028950000000     0.125409   
H10      H      0.559480000000     0.492000000000     0.221050000000     0.12541    
H11      H      0.442820000000     0.480033333333     0.220800000000     0.125641   
H12      H      0.459480000000     0.341333333333     0.028950000000     0.125409   
H13      H      0.542820000000     0.353300000000     0.029200000000     0.12564    
H14      H      0.440520000000     0.508000000000     0.471050000000     0.125409   
H15      H      0.557180000000     0.519966666667     0.470800000000     0.12564    
H16      H      0.457180000000     0.646700000000     0.279200000000     0.12564    
O1       O      0.563860000000     0.625266666667     0.335850000000    -0.596821   
O2       O      0.470340000000     0.453433333333     0.163750000000    -0.578435   
O3       O      0.536140000000     0.458600000000     0.164150000000    -0.596822   
O4       O      0.570340000000     0.379900000000     0.086250000000    -0.578436   
O5       O      0.463860000000     0.541400000000     0.414150000000    -0.596821   
O6       O      0.496800000000     0.609466666667     0.375000000000    -0.750251   
O7       O      0.403200000000     0.442800000000     0.125000000000    -0.750252   
O8       O      0.429660000000     0.620100000000     0.336250000000    -0.578434   
O9       O      0.529660000000     0.546566666667     0.413750000000    -0.578434   
O10      O      0.436140000000     0.374733333333     0.085850000000    -0.596822   
O11      O      0.536140000000     0.458600000000     0.085850000000    -0.596822   
O12      O      0.503200000000     0.390533333333     0.125000000000    -0.750252   
O13      O      0.563860000000     0.625266666667     0.414150000000    -0.59682    
O14      O      0.429660000000     0.620100000000     0.413750000000    -0.578433   
O15      O      0.463860000000     0.541400000000     0.335850000000    -0.59682    
O16      O      0.529660000000     0.546566666667     0.336250000000    -0.578433   
O17      O      0.436140000000     0.374733333333     0.164150000000    -0.596822   
O18      O      0.570340000000     0.379900000000     0.163750000000    -0.578435   
O19      O      0.596800000000     0.557200000000     0.375000000000    -0.750251   
O20      O      0.470340000000     0.453433333333     0.086250000000    -0.578435   
V1       V      0.460140000000     0.410766666667     0.125000000000     1.81635    
V2       V      0.439860000000     0.577433333333     0.375000000000     1.81635    
V3       V      0.539860000000     0.589233333333     0.375000000000     1.81635    
V4       V      0.560140000000     0.422566666667     0.125000000000     1.81635    
C1       C      0.466000000000     0.488266666667     0.517500000000    -0.107365   
C2       C      0.597240000000     0.630533333333     0.928150000000     0.621827   
C3       C      0.564600000000     0.662033333333     0.982700000000    -0.106612   
C4       C      0.434000000000     0.654933333333     0.982500000000    -0.107366   
C5       C      0.502760000000     0.463866666667     0.571850000000     0.621829   
C6       C      0.501440000000     0.484100000000     0.534850000000    -0.016705   
C7       C      0.535400000000     0.495366666667     0.517300000000    -0.106604   
C8       C      0.597240000000     0.630533333333     0.821850000000     0.621828   
C9       C      0.598560000000     0.650766666667     0.784850000000    -0.016711   
C10      C      0.564600000000     0.662033333333     0.767300000000    -0.106603   
C11      C      0.434000000000     0.654933333333     0.767500000000    -0.107359   
C12      C      0.534000000000     0.511733333333     0.767500000000    -0.107365   
C13      C      0.502760000000     0.463866666667     0.678150000000     0.621828   
C14      C      0.535400000000     0.495366666667     0.732700000000    -0.106606   
C15      C      0.466000000000     0.488266666667     0.732500000000    -0.107364   
C16      C      0.402760000000     0.369466666667     0.571850000000     0.621829   
C17      C      0.401440000000     0.349233333333     0.534850000000    -0.016711   
C18      C      0.435400000000     0.337966666667     0.517300000000    -0.106597   
C19      C      0.566000000000     0.345066666667     0.517500000000    -0.107354   
C20      C      0.497240000000     0.536133333333     0.928150000000     0.621828   
C21      C      0.498560000000     0.515900000000     0.965150000000    -0.016712   
C22      C      0.464600000000     0.504633333333     0.982700000000    -0.106598   
C23      C      0.534000000000     0.511733333333     0.982500000000    -0.107356   
C24      C      0.501440000000     0.484100000000     0.715150000000    -0.016699   
C25      C      0.464600000000     0.504633333333     0.767300000000    -0.106607   
C26      C      0.598560000000     0.650766666667     0.965150000000    -0.016699   
C27      C      0.497240000000     0.536133333333     0.821850000000     0.621827   
C28      C      0.566000000000     0.345066666667     0.732500000000    -0.10736    
C29      C      0.435400000000     0.337966666667     0.732700000000    -0.106607   
C30      C      0.401440000000     0.349233333333     0.715150000000    -0.016699   
C31      C      0.402760000000     0.369466666667     0.678150000000     0.621828   
C32      C      0.498560000000     0.515900000000     0.784850000000    -0.0167     
H1       H      0.459480000000     0.341333333333     0.721050000000     0.12541    
H2       H      0.542820000000     0.353300000000     0.720800000000     0.12564    
H3       H      0.440520000000     0.508000000000     0.778950000000     0.125409   
H4       H      0.557180000000     0.519966666667     0.779200000000     0.12564    
H5       H      0.540520000000     0.658666666667     0.971050000000     0.12541    
H6       H      0.457180000000     0.646700000000     0.970800000000     0.12564    
H7       H      0.442820000000     0.480033333333     0.529200000000     0.125641   
H8       H      0.540520000000     0.658666666667     0.778950000000     0.125409   
H9       H      0.559480000000     0.492000000000     0.528950000000     0.125409   
H10      H      0.559480000000     0.492000000000     0.721050000000     0.12541    
H11      H      0.442820000000     0.480033333333     0.720800000000     0.125641   
H12      H      0.459480000000     0.341333333333     0.528950000000     0.125409   
H13      H      0.542820000000     0.353300000000     0.529200000000     0.12564    
H14      H      0.440520000000     0.508000000000     0.971050000000     0.125409   
H15      H      0.557180000000     0.519966666667     0.970800000000     0.12564    
H16      H      0.457180000000     0.646700000000     0.779200000000     0.12564    
O1       O      0.563860000000     0.625266666667     0.835850000000    -0.596821   
O2       O      0.470340000000     0.453433333333     0.663750000000    -0.578435   
O3       O      0.536140000000     0.458600000000     0.664150000000    -0.596822   
O4       O      0.570340000000     0.379900000000     0.586250000000    -0.578436   
O5       O      0.463860000000     0.541400000000     0.914150000000    -0.596821   
O6       O      0.496800000000     0.609466666667     0.875000000000    -0.750251   
O7       O      0.403200000000     0.442800000000     0.625000000000    -0.750252   
O8       O      0.429660000000     0.620100000000     0.836250000000    -0.578434   
O9       O      0.529660000000     0.546566666667     0.913750000000    -0.578434   
O10      O      0.436140000000     0.374733333333     0.585850000000    -0.596822   
O11      O      0.536140000000     0.458600000000     0.585850000000    -0.596822   
O12      O      0.503200000000     0.390533333333     0.625000000000    -0.750252   
O13      O      0.563860000000     0.625266666667     0.914150000000    -0.59682    
O14      O      0.429660000000     0.620100000000     0.913750000000    -0.578433   
O15      O      0.463860000000     0.541400000000     0.835850000000    -0.59682    
O16      O      0.529660000000     0.546566666667     0.836250000000    -0.578433   
O17      O      0.436140000000     0.374733333333     0.664150000000    -0.596822   
O18      O      0.570340000000     0.379900000000     0.663750000000    -0.578435   
O19      O      0.596800000000     0.557200000000     0.875000000000    -0.750251   
O20      O      0.470340000000     0.453433333333     0.586250000000    -0.578435   
V1       V      0.460140000000     0.410766666667     0.625000000000     1.81635    
V2       V      0.439860000000     0.577433333333     0.875000000000     1.81635    
V3       V      0.539860000000     0.589233333333     0.875000000000     1.81635    
V4       V      0.560140000000     0.422566666667     0.625000000000     1.81635    
C1       C      0.466000000000     0.821600000000     0.017500000000    -0.107365   
C2       C      0.597240000000     0.963866666667     0.428150000000     0.621827   
C3       C      0.564600000000     0.995366666667     0.482700000000    -0.106612   
C4       C      0.434000000000     0.988266666667     0.482500000000    -0.107366   
C5       C      0.502760000000     0.797200000000     0.071850000000     0.621829   
C6       C      0.501440000000     0.817433333333     0.034850000000    -0.016705   
C7       C      0.535400000000     0.828700000000     0.017300000000    -0.106604   
C8       C      0.597240000000     0.963866666667     0.321850000000     0.621828   
C9       C      0.598560000000     0.984100000000     0.284850000000    -0.016711   
C10      C      0.564600000000     0.995366666667     0.267300000000    -0.106603   
C11      C      0.434000000000     0.988266666667     0.267500000000    -0.107359   
C12      C      0.534000000000     0.845066666667     0.267500000000    -0.107365   
C13      C      0.502760000000     0.797200000000     0.178150000000     0.621828   
C14      C      0.535400000000     0.828700000000     0.232700000000    -0.106606   
C15      C      0.466000000000     0.821600000000     0.232500000000    -0.107364   
C16      C      0.402760000000     0.702800000000     0.071850000000     0.621829   
C17      C      0.401440000000     0.682566666667     0.034850000000    -0.016711   
C18      C      0.435400000000     0.671300000000     0.017300000000    -0.106597   
C19      C      0.566000000000     0.678400000000     0.017500000000    -0.107354   
C20      C      0.497240000000     0.869466666667     0.428150000000     0.621828   
C21      C      0.498560000000     0.849233333333     0.465150000000    -0.016712   
C22      C      0.464600000000     0.837966666667     0.482700000000    -0.106598   
C23      C      0.534000000000     0.845066666667     0.482500000000    -0.107356   
C24      C      0.501440000000     0.817433333333     0.215150000000    -0.016699   
C25      C      0.464600000000     0.837966666667     0.267300000000    -0.106607   
C26      C      0.598560000000     0.984100000000     0.465150000000    -0.016699   
C27      C      0.497240000000     0.869466666667     0.321850000000     0.621827   
C28      C      0.566000000000     0.678400000000     0.232500000000    -0.10736    
C29      C      0.435400000000     0.671300000000     0.232700000000    -0.106607   
C30      C      0.401440000000     0.682566666667     0.215150000000    -0.016699   
C31      C      0.402760000000     0.702800000000     0.178150000000     0.621828   
C32      C      0.498560000000     0.849233333333     0.284850000000    -0.0167     
H1       H      0.459480000000     0.674666666667     0.221050000000     0.12541    
H2       H      0.542820000000     0.686633333333     0.220800000000     0.12564    
H3       H      0.440520000000     0.841333333333     0.278950000000     0.125409   
H4       H      0.557180000000     0.853300000000     0.279200000000     0.12564    
H5       H      0.540520000000     0.992000000000     0.471050000000     0.12541    
H6       H      0.457180000000     0.980033333333     0.470800000000     0.12564    
H7       H      0.442820000000     0.813366666667     0.029200000000     0.125641   
H8       H      0.540520000000     0.992000000000     0.278950000000     0.125409   
H9       H      0.559480000000     0.825333333333     0.028950000000     0.125409   
H10      H      0.559480000000     0.825333333333     0.221050000000     0.12541    
H11      H      0.442820000000     0.813366666667     0.220800000000     0.125641   
H12      H      0.459480000000     0.674666666667     0.028950000000     0.125409   
H13      H      0.542820000000     0.686633333333     0.029200000000     0.12564    
H14      H      0.440520000000     0.841333333333     0.471050000000     0.125409   
H15      H      0.557180000000     0.853300000000     0.470800000000     0.12564    
H16      H      0.457180000000     0.980033333333     0.279200000000     0.12564    
O1       O      0.563860000000     0.958600000000     0.335850000000    -0.596821   
O2       O      0.470340000000     0.786766666667     0.163750000000    -0.578435   
O3       O      0.536140000000     0.791933333333     0.164150000000    -0.596822   
O4       O      0.570340000000     0.713233333333     0.086250000000    -0.578436   
O5       O      0.463860000000     0.874733333333     0.414150000000    -0.596821   
O6       O      0.496800000000     0.942800000000     0.375000000000    -0.750251   
O7       O      0.403200000000     0.776133333333     0.125000000000    -0.750252   
O8       O      0.429660000000     0.953433333333     0.336250000000    -0.578434   
O9       O      0.529660000000     0.879900000000     0.413750000000    -0.578434   
O10      O      0.436140000000     0.708066666667     0.085850000000    -0.596822   
O11      O      0.536140000000     0.791933333333     0.085850000000    -0.596822   
O12      O      0.503200000000     0.723866666667     0.125000000000    -0.750252   
O13      O      0.563860000000     0.958600000000     0.414150000000    -0.59682    
O14      O      0.429660000000     0.953433333333     0.413750000000    -0.578433   
O15      O      0.463860000000     0.874733333333     0.335850000000    -0.59682    
O16      O      0.529660000000     0.879900000000     0.336250000000    -0.578433   
O17      O      0.436140000000     0.708066666667     0.164150000000    -0.596822   
O18      O      0.570340000000     0.713233333333     0.163750000000    -0.578435   
O19      O      0.596800000000     0.890533333333     0.375000000000    -0.750251   
O20      O      0.470340000000     0.786766666667     0.086250000000    -0.578435   
V1       V      0.460140000000     0.744100000000     0.125000000000     1.81635    
V2       V      0.439860000000     0.910766666667     0.375000000000     1.81635    
V3       V      0.539860000000     0.922566666667     0.375000000000     1.81635    
V4       V      0.560140000000     0.755900000000     0.125000000000     1.81635    
C1       C      0.466000000000     0.821600000000     0.517500000000    -0.107365   
C2       C      0.597240000000     0.963866666667     0.928150000000     0.621827   
C3       C      0.564600000000     0.995366666667     0.982700000000    -0.106612   
C4       C      0.434000000000     0.988266666667     0.982500000000    -0.107366   
C5       C      0.502760000000     0.797200000000     0.571850000000     0.621829   
C6       C      0.501440000000     0.817433333333     0.534850000000    -0.016705   
C7       C      0.535400000000     0.828700000000     0.517300000000    -0.106604   
C8       C      0.597240000000     0.963866666667     0.821850000000     0.621828   
C9       C      0.598560000000     0.984100000000     0.784850000000    -0.016711   
C10      C      0.564600000000     0.995366666667     0.767300000000    -0.106603   
C11      C      0.434000000000     0.988266666667     0.767500000000    -0.107359   
C12      C      0.534000000000     0.845066666667     0.767500000000    -0.107365   
C13      C      0.502760000000     0.797200000000     0.678150000000     0.621828   
C14      C      0.535400000000     0.828700000000     0.732700000000    -0.106606   
C15      C      0.466000000000     0.821600000000     0.732500000000    -0.107364   
C16      C      0.402760000000     0.702800000000     0.571850000000     0.621829   
C17      C      0.401440000000     0.682566666667     0.534850000000    -0.016711   
C18      C      0.435400000000     0.671300000000     0.517300000000    -0.106597   
C19      C      0.566000000000     0.678400000000     0.517500000000    -0.107354   
C20      C      0.497240000000     0.869466666667     0.928150000000     0.621828   
C21      C      0.498560000000     0.849233333333     0.965150000000    -0.016712   
C22      C      0.464600000000     0.837966666667     0.982700000000    -0.106598   
C23      C      0.534000000000     0.845066666667     0.982500000000    -0.107356   
C24      C      0.501440000000     0.817433333333     0.715150000000    -0.016699   
C25      C      0.464600000000     0.837966666667     0.767300000000    -0.106607   
C26      C      0.598560000000     0.984100000000     0.965150000000    -0.016699   
C27      C      0.497240000000     0.869466666667     0.821850000000     0.621827   
C28      C      0.566000000000     0.678400000000     0.732500000000    -0.10736    
C29      C      0.435400000000     0.671300000000     0.732700000000    -0.106607   
C30      C      0.401440000000     0.682566666667     0.715150000000    -0.016699   
C31      C      0.402760000000     0.702800000000     0.678150000000     0.621828   
C32      C      0.498560000000     0.849233333333     0.784850000000    -0.0167     
H1       H      0.459480000000     0.674666666667     0.721050000000     0.12541    
H2       H      0.542820000000     0.686633333333     0.720800000000     0.12564    
H3       H      0.440520000000     0.841333333333     0.778950000000     0.125409   
H4       H      0.557180000000     0.853300000000     0.779200000000     0.12564    
H5       H      0.540520000000     0.992000000000     0.971050000000     0.12541    
H6       H      0.457180000000     0.980033333333     0.970800000000     0.12564    
H7       H      0.442820000000     0.813366666667     0.529200000000     0.125641   
H8       H      0.540520000000     0.992000000000     0.778950000000     0.125409   
H9       H      0.559480000000     0.825333333333     0.528950000000     0.125409   
H10      H      0.559480000000     0.825333333333     0.721050000000     0.12541    
H11      H      0.442820000000     0.813366666667     0.720800000000     0.125641   
H12      H      0.459480000000     0.674666666667     0.528950000000     0.125409   
H13      H      0.542820000000     0.686633333333     0.529200000000     0.12564    
H14      H      0.440520000000     0.841333333333     0.971050000000     0.125409   
H15      H      0.557180000000     0.853300000000     0.970800000000     0.12564    
H16      H      0.457180000000     0.980033333333     0.779200000000     0.12564    
O1       O      0.563860000000     0.958600000000     0.835850000000    -0.596821   
O2       O      0.470340000000     0.786766666667     0.663750000000    -0.578435   
O3       O      0.536140000000     0.791933333333     0.664150000000    -0.596822   
O4       O      0.570340000000     0.713233333333     0.586250000000    -0.578436   
O5       O      0.463860000000     0.874733333333     0.914150000000    -0.596821   
O6       O      0.496800000000     0.942800000000     0.875000000000    -0.750251   
O7       O      0.403200000000     0.776133333333     0.625000000000    -0.750252   
O8       O      0.429660000000     0.953433333333     0.836250000000    -0.578434   
O9       O      0.529660000000     0.879900000000     0.913750000000    -0.578434   
O10      O      0.436140000000     0.708066666667     0.585850000000    -0.596822   
O11      O      0.536140000000     0.791933333333     0.585850000000    -0.596822   
O12      O      0.503200000000     0.723866666667     0.625000000000    -0.750252   
O13      O      0.563860000000     0.958600000000     0.914150000000    -0.59682    
O14      O      0.429660000000     0.953433333333     0.913750000000    -0.578433   
O15      O      0.463860000000     0.874733333333     0.835850000000    -0.59682    
O16      O      0.529660000000     0.879900000000     0.836250000000    -0.578433   
O17      O      0.436140000000     0.708066666667     0.664150000000    -0.596822   
O18      O      0.570340000000     0.713233333333     0.663750000000    -0.578435   
O19      O      0.596800000000     0.890533333333     0.875000000000    -0.750251   
O20      O      0.470340000000     0.786766666667     0.586250000000    -0.578435   
V1       V      0.460140000000     0.744100000000     0.625000000000     1.81635    
V2       V      0.439860000000     0.910766666667     0.875000000000     1.81635    
V3       V      0.539860000000     0.922566666667     0.875000000000     1.81635    
V4       V      0.560140000000     0.755900000000     0.625000000000     1.81635    
C1       C      0.666000000000     0.154933333333     0.017500000000    -0.107365   
C2       C      0.797240000000     0.297200000000     0.428150000000     0.621827   
C3       C      0.764600000000     0.328700000000     0.482700000000    -0.106612   
C4       C      0.634000000000     0.321600000000     0.482500000000    -0.107366   
C5       C      0.702760000000     0.130533333333     0.071850000000     0.621829   
C6       C      0.701440000000     0.150766666667     0.034850000000    -0.016705   
C7       C      0.735400000000     0.162033333333     0.017300000000    -0.106604   
C8       C      0.797240000000     0.297200000000     0.321850000000     0.621828   
C9       C      0.798560000000     0.317433333333     0.284850000000    -0.016711   
C10      C      0.764600000000     0.328700000000     0.267300000000    -0.106603   
C11      C      0.634000000000     0.321600000000     0.267500000000    -0.107359   
C12      C      0.734000000000     0.178400000000     0.267500000000    -0.107365   
C13      C      0.702760000000     0.130533333333     0.178150000000     0.621828   
C14      C      0.735400000000     0.162033333333     0.232700000000    -0.106606   
C15      C      0.666000000000     0.154933333333     0.232500000000    -0.107364   
C16      C      0.602760000000     0.036133333333     0.071850000000     0.621829   
C17      C      0.601440000000     0.015900000000     0.034850000000    -0.016711   
C18      C      0.635400000000     0.004633333333     0.017300000000    -0.106597   
C19      C      0.766000000000     0.011733333333     0.017500000000    -0.107354   
C20      C      0.697240000000     0.202800000000     0.428150000000     0.621828   
C21      C      0.698560000000     0.182566666667     0.465150000000    -0.016712   
C22      C      0.664600000000     0.171300000000     0.482700000000    -0.106598   
C23      C      0.734000000000     0.178400000000     0.482500000000    -0.107356   
C24      C      0.701440000000     0.150766666667     0.215150000000    -0.016699   
C25      C      0.664600000000     0.171300000000     0.267300000000    -0.106607   
C26      C      0.798560000000     0.317433333333     0.465150000000    -0.016699   
C27      C      0.697240000000     0.202800000000     0.321850000000     0.621827   
C28      C      0.766000000000     0.011733333333     0.232500000000    -0.10736    
C29      C      0.635400000000     0.004633333333     0.232700000000    -0.106607   
C30      C      0.601440000000     0.015900000000     0.215150000000    -0.016699   
C31      C      0.602760000000     0.036133333333     0.178150000000     0.621828   
C32      C      0.698560000000     0.182566666667     0.284850000000    -0.0167     
H1       H      0.659480000000     0.008000000000     0.221050000000     0.12541    
H2       H      0.742820000000     0.019966666667     0.220800000000     0.12564    
H3       H      0.640520000000     0.174666666667     0.278950000000     0.125409   
H4       H      0.757180000000     0.186633333333     0.279200000000     0.12564    
H5       H      0.740520000000     0.325333333333     0.471050000000     0.12541    
H6       H      0.657180000000     0.313366666667     0.470800000000     0.12564    
H7       H      0.642820000000     0.146700000000     0.029200000000     0.125641   
H8       H      0.740520000000     0.325333333333     0.278950000000     0.125409   
H9       H      0.759480000000     0.158666666667     0.028950000000     0.125409   
H10      H      0.759480000000     0.158666666667     0.221050000000     0.12541    
H11      H      0.642820000000     0.146700000000     0.220800000000     0.125641   
H12      H      0.659480000000     0.008000000000     0.028950000000     0.125409   
H13      H      0.742820000000     0.019966666667     0.029200000000     0.12564    
H14      H      0.640520000000     0.174666666667     0.471050000000     0.125409   
H15      H      0.757180000000     0.186633333333     0.470800000000     0.12564    
H16      H      0.657180000000     0.313366666667     0.279200000000     0.12564    
O1       O      0.763860000000     0.291933333333     0.335850000000    -0.596821   
O2       O      0.670340000000     0.120100000000     0.163750000000    -0.578435   
O3       O      0.736140000000     0.125266666667     0.164150000000    -0.596822   
O4       O      0.770340000000     0.046566666667     0.086250000000    -0.578436   
O5       O      0.663860000000     0.208066666667     0.414150000000    -0.596821   
O6       O      0.696800000000     0.276133333333     0.375000000000    -0.750251   
O7       O      0.603200000000     0.109466666667     0.125000000000    -0.750252   
O8       O      0.629660000000     0.286766666667     0.336250000000    -0.578434   
O9       O      0.729660000000     0.213233333333     0.413750000000    -0.578434   
O10      O      0.636140000000     0.041400000000     0.085850000000    -0.596822   
O11      O      0.736140000000     0.125266666667     0.085850000000    -0.596822   
O12      O      0.703200000000     0.057200000000     0.125000000000    -0.750252   
O13      O      0.763860000000     0.291933333333     0.414150000000    -0.59682    
O14      O      0.629660000000     0.286766666667     0.413750000000    -0.578433   
O15      O      0.663860000000     0.208066666667     0.335850000000    -0.59682    
O16      O      0.729660000000     0.213233333333     0.336250000000    -0.578433   
O17      O      0.636140000000     0.041400000000     0.164150000000    -0.596822   
O18      O      0.770340000000     0.046566666667     0.163750000000    -0.578435   
O19      O      0.796800000000     0.223866666667     0.375000000000    -0.750251   
O20      O      0.670340000000     0.120100000000     0.086250000000    -0.578435   
V1       V      0.660140000000     0.077433333333     0.125000000000     1.81635    
V2       V      0.639860000000     0.244100000000     0.375000000000     1.81635    
V3       V      0.739860000000     0.255900000000     0.375000000000     1.81635    
V4       V      0.760140000000     0.089233333333     0.125000000000     1.81635    
C1       C      0.666000000000     0.154933333333     0.517500000000    -0.107365   
C2       C      0.797240000000     0.297200000000     0.928150000000     0.621827   
C3       C      0.764600000000     0.328700000000     0.982700000000    -0.106612   
C4       C      0.634000000000     0.321600000000     0.982500000000    -0.107366   
C5       C      0.702760000000     0.130533333333     0.571850000000     0.621829   
C6       C      0.701440000000     0.150766666667     0.534850000000    -0.016705   
C7       C      0.735400000000     0.162033333333     0.517300000000    -0.106604   
C8       C      0.797240000000     0.297200000000     0.821850000000     0.621828   
C9       C      0.798560000000     0.317433333333     0.784850000000    -0.016711   
C10      C      0.764600000000     0.328700000000     0.767300000000    -0.106603   
C11      C      0.634000000000     0.321600000000     0.767500000000    -0.107359   
C12      C      0.734000000000     0.178400000000     0.767500000000    -0.107365   
C13      C      0.702760000000     0.130533333333     0.678150000000     0.621828   
C14      C      0.735400000000     0.162033333333     0.732700000000    -0.106606   
C15      C      0.666000000000     0.154933333333     0.732500000000    -0.107364   
C16      C      0.602760000000     0.036133333333     0.571850000000     0.621829   
C17      C      0.601440000000     0.015900000000     0.534850000000    -0.016711   
C18      C      0.635400000000     0.004633333333     0.517300000000    -0.106597   
C19      C      0.766000000000     0.011733333333     0.517500000000    -0.107354   
C20      C      0.697240000000     0.202800000000     0.928150000000     0.621828   
C21      C      0.698560000000     0.182566666667     0.965150000000    -0.016712   
C22      C      0.664600000000     0.171300000000     0.982700000000    -0.106598   
C23      C      0.734000000000     0.178400000000     0.982500000000    -0.107356   
C24      C      0.701440000000     0.150766666667     0.715150000000    -0.016699   
C25      C      0.664600000000     0.171300000000     0.767300000000    -0.106607   
C26      C      0.798560000000     0.317433333333     0.965150000000    -0.016699   
C27      C      0.697240000000     0.202800000000     0.821850000000     0.621827   
C28      C      0.766000000000     0.011733333333     0.732500000000    -0.10736    
C29      C      0.635400000000     0.004633333333     0.732700000000    -0.106607   
C30      C      0.601440000000     0.015900000000     0.715150000000    -0.016699   
C31      C      0.602760000000     0.036133333333     0.678150000000     0.621828   
C32      C      0.698560000000     0.182566666667     0.784850000000    -0.0167     
H1       H      0.659480000000     0.008000000000     0.721050000000     0.12541    
H2       H      0.742820000000     0.019966666667     0.720800000000     0.12564    
H3       H      0.640520000000     0.174666666667     0.778950000000     0.125409   
H4       H      0.757180000000     0.186633333333     0.779200000000     0.12564    
H5       H      0.740520000000     0.325333333333     0.971050000000     0.12541    
H6       H      0.657180000000     0.313366666667     0.970800000000     0.12564    
H7       H      0.642820000000     0.146700000000     0.529200000000     0.125641   
H8       H      0.740520000000     0.325333333333     0.778950000000     0.125409   
H9       H      0.759480000000     0.158666666667     0.528950000000     0.125409   
H10      H      0.759480000000     0.158666666667     0.721050000000     0.12541    
H11      H      0.642820000000     0.146700000000     0.720800000000     0.125641   
H12      H      0.659480000000     0.008000000000     0.528950000000     0.125409   
H13      H      0.742820000000     0.019966666667     0.529200000000     0.12564    
H14      H      0.640520000000     0.174666666667     0.971050000000     0.125409   
H15      H      0.757180000000     0.186633333333     0.970800000000     0.12564    
H16      H      0.657180000000     0.313366666667     0.779200000000     0.12564    
O1       O      0.763860000000     0.291933333333     0.835850000000    -0.596821   
O2       O      0.670340000000     0.120100000000     0.663750000000    -0.578435   
O3       O      0.736140000000     0.125266666667     0.664150000000    -0.596822   
O4       O      0.770340000000     0.046566666667     0.586250000000    -0.578436   
O5       O      0.663860000000     0.208066666667     0.914150000000    -0.596821   
O6       O      0.696800000000     0.276133333333     0.875000000000    -0.750251   
O7       O      0.603200000000     0.109466666667     0.625000000000    -0.750252   
O8       O      0.629660000000     0.286766666667     0.836250000000    -0.578434   
O9       O      0.729660000000     0.213233333333     0.913750000000    -0.578434   
O10      O      0.636140000000     0.041400000000     0.585850000000    -0.596822   
O11      O      0.736140000000     0.125266666667     0.585850000000    -0.596822   
O12      O      0.703200000000     0.057200000000     0.625000000000    -0.750252   
O13      O      0.763860000000     0.291933333333     0.914150000000    -0.59682    
O14      O      0.629660000000     0.286766666667     0.913750000000    -0.578433   
O15      O      0.663860000000     0.208066666667     0.835850000000    -0.59682    
O16      O      0.729660000000     0.213233333333     0.836250000000    -0.578433   
O17      O      0.636140000000     0.041400000000     0.664150000000    -0.596822   
O18      O      0.770340000000     0.046566666667     0.663750000000    -0.578435   
O19      O      0.796800000000     0.223866666667     0.875000000000    -0.750251   
O20      O      0.670340000000     0.120100000000     0.586250000000    -0.578435   
V1       V      0.660140000000     0.077433333333     0.625000000000     1.81635    
V2       V      0.639860000000     0.244100000000     0.875000000000     1.81635    
V3       V      0.739860000000     0.255900000000     0.875000000000     1.81635    
V4       V      0.760140000000     0.089233333333     0.625000000000     1.81635    
C1       C      0.666000000000     0.488266666667     0.017500000000    -0.107365   
C2       C      0.797240000000     0.630533333333     0.428150000000     0.621827   
C3       C      0.764600000000     0.662033333333     0.482700000000    -0.106612   
C4       C      0.634000000000     0.654933333333     0.482500000000    -0.107366   
C5       C      0.702760000000     0.463866666667     0.071850000000     0.621829   
C6       C      0.701440000000     0.484100000000     0.034850000000    -0.016705   
C7       C      0.735400000000     0.495366666667     0.017300000000    -0.106604   
C8       C      0.797240000000     0.630533333333     0.321850000000     0.621828   
C9       C      0.798560000000     0.650766666667     0.284850000000    -0.016711   
C10      C      0.764600000000     0.662033333333     0.267300000000    -0.106603   
C11      C      0.634000000000     0.654933333333     0.267500000000    -0.107359   
C12      C      0.734000000000     0.511733333333     0.267500000000    -0.107365   
C13      C      0.702760000000     0.463866666667     0.178150000000     0.621828   
C14      C      0.735400000000     0.495366666667     0.232700000000    -0.106606   
C15      C      0.666000000000     0.488266666667     0.232500000000    -0.107364   
C16      C      0.602760000000     0.369466666667     0.071850000000     0.621829   
C17      C      0.601440000000     0.349233333333     0.034850000000    -0.016711   
C18      C      0.635400000000     0.337966666667     0.017300000000    -0.106597   
C19      C      0.766000000000     0.345066666667     0.017500000000    -0.107354   
C20      C      0.697240000000     0.536133333333     0.428150000000     0.621828   
C21      C      0.698560000000     0.515900000000     0.465150000000    -0.016712   
C22      C      0.664600000000     0.504633333333     0.482700000000    -0.106598   
C23      C      0.734000000000     0.511733333333     0.482500000000    -0.107356   
C24      C      0.701440000000     0.484100000000     0.215150000000    -0.016699   
C25      C      0.664600000000     0.504633333333     0.267300000000    -0.106607   
C26      C      0.798560000000     0.650766666667     0.465150000000    -0.016699   
C27      C      0.697240000000     0.536133333333     0.321850000000     0.621827   
C28      C      0.766000000000     0.345066666667     0.232500000000    -0.10736    
C29      C      0.635400000000     0.337966666667     0.232700000000    -0.106607   
C30      C      0.601440000000     0.349233333333     0.215150000000    -0.016699   
C31      C      0.602760000000     0.369466666667     0.178150000000     0.621828   
C32      C      0.698560000000     0.515900000000     0.284850000000    -0.0167     
H1       H      0.659480000000     0.341333333333     0.221050000000     0.12541    
H2       H      0.742820000000     0.353300000000     0.220800000000     0.12564    
H3       H      0.640520000000     0.508000000000     0.278950000000     0.125409   
H4       H      0.757180000000     0.519966666667     0.279200000000     0.12564    
H5       H      0.740520000000     0.658666666667     0.471050000000     0.12541    
H6       H      0.657180000000     0.646700000000     0.470800000000     0.12564    
H7       H      0.642820000000     0.480033333333     0.029200000000     0.125641   
H8       H      0.740520000000     0.658666666667     0.278950000000     0.125409   
H9       H      0.759480000000     0.492000000000     0.028950000000     0.125409   
H10      H      0.759480000000     0.492000000000     0.221050000000     0.12541    
H11      H      0.642820000000     0.480033333333     0.220800000000     0.125641   
H12      H      0.659480000000     0.341333333333     0.028950000000     0.125409   
H13      H      0.742820000000     0.353300000000     0.029200000000     0.12564    
H14      H      0.640520000000     0.508000000000     0.471050000000     0.125409   
H15      H      0.757180000000     0.519966666667     0.470800000000     0.12564    
H16      H      0.657180000000     0.646700000000     0.279200000000     0.12564    
O1       O      0.763860000000     0.625266666667     0.335850000000    -0.596821   
O2       O      0.670340000000     0.453433333333     0.163750000000    -0.578435   
O3       O      0.736140000000     0.458600000000     0.164150000000    -0.596822   
O4       O      0.770340000000     0.379900000000     0.086250000000    -0.578436   
O5       O      0.663860000000     0.541400000000     0.414150000000    -0.596821   
O6       O      0.696800000000     0.609466666667     0.375000000000    -0.750251   
O7       O      0.603200000000     0.442800000000     0.125000000000    -0.750252   
O8       O      0.629660000000     0.620100000000     0.336250000000    -0.578434   
O9       O      0.729660000000     0.546566666667     0.413750000000    -0.578434   
O10      O      0.636140000000     0.374733333333     0.085850000000    -0.596822   
O11      O      0.736140000000     0.458600000000     0.085850000000    -0.596822   
O12      O      0.703200000000     0.390533333333     0.125000000000    -0.750252   
O13      O      0.763860000000     0.625266666667     0.414150000000    -0.59682    
O14      O      0.629660000000     0.620100000000     0.413750000000    -0.578433   
O15      O      0.663860000000     0.541400000000     0.335850000000    -0.59682    
O16      O      0.729660000000     0.546566666667     0.336250000000    -0.578433   
O17      O      0.636140000000     0.374733333333     0.164150000000    -0.596822   
O18      O      0.770340000000     0.379900000000     0.163750000000    -0.578435   
O19      O      0.796800000000     0.557200000000     0.375000000000    -0.750251   
O20      O      0.670340000000     0.453433333333     0.086250000000    -0.578435   
V1       V      0.660140000000     0.410766666667     0.125000000000     1.81635    
V2       V      0.639860000000     0.577433333333     0.375000000000     1.81635    
V3       V      0.739860000000     0.589233333333     0.375000000000     1.81635    
V4       V      0.760140000000     0.422566666667     0.125000000000     1.81635    
C1       C      0.666000000000     0.488266666667     0.517500000000    -0.107365   
C2       C      0.797240000000     0.630533333333     0.928150000000     0.621827   
C3       C      0.764600000000     0.662033333333     0.982700000000    -0.106612   
C4       C      0.634000000000     0.654933333333     0.982500000000    -0.107366   
C5       C      0.702760000000     0.463866666667     0.571850000000     0.621829   
C6       C      0.701440000000     0.484100000000     0.534850000000    -0.016705   
C7       C      0.735400000000     0.495366666667     0.517300000000    -0.106604   
C8       C      0.797240000000     0.630533333333     0.821850000000     0.621828   
C9       C      0.798560000000     0.650766666667     0.784850000000    -0.016711   
C10      C      0.764600000000     0.662033333333     0.767300000000    -0.106603   
C11      C      0.634000000000     0.654933333333     0.767500000000    -0.107359   
C12      C      0.734000000000     0.511733333333     0.767500000000    -0.107365   
C13      C      0.702760000000     0.463866666667     0.678150000000     0.621828   
C14      C      0.735400000000     0.495366666667     0.732700000000    -0.106606   
C15      C      0.666000000000     0.488266666667     0.732500000000    -0.107364   
C16      C      0.602760000000     0.369466666667     0.571850000000     0.621829   
C17      C      0.601440000000     0.349233333333     0.534850000000    -0.016711   
C18      C      0.635400000000     0.337966666667     0.517300000000    -0.106597   
C19      C      0.766000000000     0.345066666667     0.517500000000    -0.107354   
C20      C      0.697240000000     0.536133333333     0.928150000000     0.621828   
C21      C      0.698560000000     0.515900000000     0.965150000000    -0.016712   
C22      C      0.664600000000     0.504633333333     0.982700000000    -0.106598   
C23      C      0.734000000000     0.511733333333     0.982500000000    -0.107356   
C24      C      0.701440000000     0.484100000000     0.715150000000    -0.016699   
C25      C      0.664600000000     0.504633333333     0.767300000000    -0.106607   
C26      C      0.798560000000     0.650766666667     0.965150000000    -0.016699   
C27      C      0.697240000000     0.536133333333     0.821850000000     0.621827   
C28      C      0.766000000000     0.345066666667     0.732500000000    -0.10736    
C29      C      0.635400000000     0.337966666667     0.732700000000    -0.106607   
C30      C      0.601440000000     0.349233333333     0.715150000000    -0.016699   
C31      C      0.602760000000     0.369466666667     0.678150000000     0.621828   
C32      C      0.698560000000     0.515900000000     0.784850000000    -0.0167     
H1       H      0.659480000000     0.341333333333     0.721050000000     0.12541    
H2       H      0.742820000000     0.353300000000     0.720800000000     0.12564    
H3       H      0.640520000000     0.508000000000     0.778950000000     0.125409   
H4       H      0.757180000000     0.519966666667     0.779200000000     0.12564    
H5       H      0.740520000000     0.658666666667     0.971050000000     0.12541    
H6       H      0.657180000000     0.646700000000     0.970800000000     0.12564    
H7       H      0.642820000000     0.480033333333     0.529200000000     0.125641   
H8       H      0.740520000000     0.658666666667     0.778950000000     0.125409   
H9       H      0.759480000000     0.492000000000     0.528950000000     0.125409   
H10      H      0.759480000000     0.492000000000     0.721050000000     0.12541    
H11      H      0.642820000000     0.480033333333     0.720800000000     0.125641   
H12      H      0.659480000000     0.341333333333     0.528950000000     0.125409   
H13      H      0.742820000000     0.353300000000     0.529200000000     0.12564    
H14      H      0.640520000000     0.508000000000     0.971050000000     0.125409   
H15      H      0.757180000000     0.519966666667     0.970800000000     0.12564    
H16      H      0.657180000000     0.646700000000     0.779200000000     0.12564    
O1       O      0.763860000000     0.625266666667     0.835850000000    -0.596821   
O2       O      0.670340000000     0.453433333333     0.663750000000    -0.578435   
O3       O      0.736140000000     0.458600000000     0.664150000000    -0.596822   
O4       O      0.770340000000     0.379900000000     0.586250000000    -0.578436   
O5       O      0.663860000000     0.541400000000     0.914150000000    -0.596821   
O6       O      0.696800000000     0.609466666667     0.875000000000    -0.750251   
O7       O      0.603200000000     0.442800000000     0.625000000000    -0.750252   
O8       O      0.629660000000     0.620100000000     0.836250000000    -0.578434   
O9       O      0.729660000000     0.546566666667     0.913750000000    -0.578434   
O10      O      0.636140000000     0.374733333333     0.585850000000    -0.596822   
O11      O      0.736140000000     0.458600000000     0.585850000000    -0.596822   
O12      O      0.703200000000     0.390533333333     0.625000000000    -0.750252   
O13      O      0.763860000000     0.625266666667     0.914150000000    -0.59682    
O14      O      0.629660000000     0.620100000000     0.913750000000    -0.578433   
O15      O      0.663860000000     0.541400000000     0.835850000000    -0.59682    
O16      O      0.729660000000     0.546566666667     0.836250000000    -0.578433   
O17      O      0.636140000000     0.374733333333     0.664150000000    -0.596822   
O18      O      0.770340000000     0.379900000000     0.663750000000    -0.578435   
O19      O      0.796800000000     0.557200000000     0.875000000000    -0.750251   
O20      O      0.670340000000     0.453433333333     0.586250000000    -0.578435   
V1       V      0.660140000000     0.410766666667     0.625000000000     1.81635    
V2       V      0.639860000000     0.577433333333     0.875000000000     1.81635    
V3       V      0.739860000000     0.589233333333     0.875000000000     1.81635    
V4       V      0.760140000000     0.422566666667     0.625000000000     1.81635    
C1       C      0.666000000000     0.821600000000     0.017500000000    -0.107365   
C2       C      0.797240000000     0.963866666667     0.428150000000     0.621827   
C3       C      0.764600000000     0.995366666667     0.482700000000    -0.106612   
C4       C      0.634000000000     0.988266666667     0.482500000000    -0.107366   
C5       C      0.702760000000     0.797200000000     0.071850000000     0.621829   
C6       C      0.701440000000     0.817433333333     0.034850000000    -0.016705   
C7       C      0.735400000000     0.828700000000     0.017300000000    -0.106604   
C8       C      0.797240000000     0.963866666667     0.321850000000     0.621828   
C9       C      0.798560000000     0.984100000000     0.284850000000    -0.016711   
C10      C      0.764600000000     0.995366666667     0.267300000000    -0.106603   
C11      C      0.634000000000     0.988266666667     0.267500000000    -0.107359   
C12      C      0.734000000000     0.845066666667     0.267500000000    -0.107365   
C13      C      0.702760000000     0.797200000000     0.178150000000     0.621828   
C14      C      0.735400000000     0.828700000000     0.232700000000    -0.106606   
C15      C      0.666000000000     0.821600000000     0.232500000000    -0.107364   
C16      C      0.602760000000     0.702800000000     0.071850000000     0.621829   
C17      C      0.601440000000     0.682566666667     0.034850000000    -0.016711   
C18      C      0.635400000000     0.671300000000     0.017300000000    -0.106597   
C19      C      0.766000000000     0.678400000000     0.017500000000    -0.107354   
C20      C      0.697240000000     0.869466666667     0.428150000000     0.621828   
C21      C      0.698560000000     0.849233333333     0.465150000000    -0.016712   
C22      C      0.664600000000     0.837966666667     0.482700000000    -0.106598   
C23      C      0.734000000000     0.845066666667     0.482500000000    -0.107356   
C24      C      0.701440000000     0.817433333333     0.215150000000    -0.016699   
C25      C      0.664600000000     0.837966666667     0.267300000000    -0.106607   
C26      C      0.798560000000     0.984100000000     0.465150000000    -0.016699   
C27      C      0.697240000000     0.869466666667     0.321850000000     0.621827   
C28      C      0.766000000000     0.678400000000     0.232500000000    -0.10736    
C29      C      0.635400000000     0.671300000000     0.232700000000    -0.106607   
C30      C      0.601440000000     0.682566666667     0.215150000000    -0.016699   
C31      C      0.602760000000     0.702800000000     0.178150000000     0.621828   
C32      C      0.698560000000     0.849233333333     0.284850000000    -0.0167     
H1       H      0.659480000000     0.674666666667     0.221050000000     0.12541    
H2       H      0.742820000000     0.686633333333     0.220800000000     0.12564    
H3       H      0.640520000000     0.841333333333     0.278950000000     0.125409   
H4       H      0.757180000000     0.853300000000     0.279200000000     0.12564    
H5       H      0.740520000000     0.992000000000     0.471050000000     0.12541    
H6       H      0.657180000000     0.980033333333     0.470800000000     0.12564    
H7       H      0.642820000000     0.813366666667     0.029200000000     0.125641   
H8       H      0.740520000000     0.992000000000     0.278950000000     0.125409   
H9       H      0.759480000000     0.825333333333     0.028950000000     0.125409   
H10      H      0.759480000000     0.825333333333     0.221050000000     0.12541    
H11      H      0.642820000000     0.813366666667     0.220800000000     0.125641   
H12      H      0.659480000000     0.674666666667     0.028950000000     0.125409   
H13      H      0.742820000000     0.686633333333     0.029200000000     0.12564    
H14      H      0.640520000000     0.841333333333     0.471050000000     0.125409   
H15      H      0.757180000000     0.853300000000     0.470800000000     0.12564    
H16      H      0.657180000000     0.980033333333     0.279200000000     0.12564    
O1       O      0.763860000000     0.958600000000     0.335850000000    -0.596821   
O2       O      0.670340000000     0.786766666667     0.163750000000    -0.578435   
O3       O      0.736140000000     0.791933333333     0.164150000000    -0.596822   
O4       O      0.770340000000     0.713233333333     0.086250000000    -0.578436   
O5       O      0.663860000000     0.874733333333     0.414150000000    -0.596821   
O6       O      0.696800000000     0.942800000000     0.375000000000    -0.750251   
O7       O      0.603200000000     0.776133333333     0.125000000000    -0.750252   
O8       O      0.629660000000     0.953433333333     0.336250000000    -0.578434   
O9       O      0.729660000000     0.879900000000     0.413750000000    -0.578434   
O10      O      0.636140000000     0.708066666667     0.085850000000    -0.596822   
O11      O      0.736140000000     0.791933333333     0.085850000000    -0.596822   
O12      O      0.703200000000     0.723866666667     0.125000000000    -0.750252   
O13      O      0.763860000000     0.958600000000     0.414150000000    -0.59682    
O14      O      0.629660000000     0.953433333333     0.413750000000    -0.578433   
O15      O      0.663860000000     0.874733333333     0.335850000000    -0.59682    
O16      O      0.729660000000     0.879900000000     0.336250000000    -0.578433   
O17      O      0.636140000000     0.708066666667     0.164150000000    -0.596822   
O18      O      0.770340000000     0.713233333333     0.163750000000    -0.578435   
O19      O      0.796800000000     0.890533333333     0.375000000000    -0.750251   
O20      O      0.670340000000     0.786766666667     0.086250000000    -0.578435   
V1       V      0.660140000000     0.744100000000     0.125000000000     1.81635    
V2       V      0.639860000000     0.910766666667     0.375000000000     1.81635    
V3       V      0.739860000000     0.922566666667     0.375000000000     1.81635    
V4       V      0.760140000000     0.755900000000     0.125000000000     1.81635    
C1       C      0.666000000000     0.821600000000     0.517500000000    -0.107365   
C2       C      0.797240000000     0.963866666667     0.928150000000     0.621827   
C3       C      0.764600000000     0.995366666667     0.982700000000    -0.106612   
C4       C      0.634000000000     0.988266666667     0.982500000000    -0.107366   
C5       C      0.702760000000     0.797200000000     0.571850000000     0.621829   
C6       C      0.701440000000     0.817433333333     0.534850000000    -0.016705   
C7       C      0.735400000000     0.828700000000     0.517300000000    -0.106604   
C8       C      0.797240000000     0.963866666667     0.821850000000     0.621828   
C9       C      0.798560000000     0.984100000000     0.784850000000    -0.016711   
C10      C      0.764600000000     0.995366666667     0.767300000000    -0.106603   
C11      C      0.634000000000     0.988266666667     0.767500000000    -0.107359   
C12      C      0.734000000000     0.845066666667     0.767500000000    -0.107365   
C13      C      0.702760000000     0.797200000000     0.678150000000     0.621828   
C14      C      0.735400000000     0.828700000000     0.732700000000    -0.106606   
C15      C      0.666000000000     0.821600000000     0.732500000000    -0.107364   
C16      C      0.602760000000     0.702800000000     0.571850000000     0.621829   
C17      C      0.601440000000     0.682566666667     0.534850000000    -0.016711   
C18      C      0.635400000000     0.671300000000     0.517300000000    -0.106597   
C19      C      0.766000000000     0.678400000000     0.517500000000    -0.107354   
C20      C      0.697240000000     0.869466666667     0.928150000000     0.621828   
C21      C      0.698560000000     0.849233333333     0.965150000000    -0.016712   
C22      C      0.664600000000     0.837966666667     0.982700000000    -0.106598   
C23      C      0.734000000000     0.845066666667     0.982500000000    -0.107356   
C24      C      0.701440000000     0.817433333333     0.715150000000    -0.016699   
C25      C      0.664600000000     0.837966666667     0.767300000000    -0.106607   
C26      C      0.798560000000     0.984100000000     0.965150000000    -0.016699   
C27      C      0.697240000000     0.869466666667     0.821850000000     0.621827   
C28      C      0.766000000000     0.678400000000     0.732500000000    -0.10736    
C29      C      0.635400000000     0.671300000000     0.732700000000    -0.106607   
C30      C      0.601440000000     0.682566666667     0.715150000000    -0.016699   
C31      C      0.602760000000     0.702800000000     0.678150000000     0.621828   
C32      C      0.698560000000     0.849233333333     0.784850000000    -0.0167     
H1       H      0.659480000000     0.674666666667     0.721050000000     0.12541    
H2       H      0.742820000000     0.686633333333     0.720800000000     0.12564    
H3       H      0.640520000000     0.841333333333     0.778950000000     0.125409   
H4       H      0.757180000000     0.853300000000     0.779200000000     0.12564    
H5       H      0.740520000000     0.992000000000     0.971050000000     0.12541    
H6       H      0.657180000000     0.980033333333     0.970800000000     0.12564    
H7       H      0.642820000000     0.813366666667     0.529200000000     0.125641   
H8       H      0.740520000000     0.992000000000     0.778950000000     0.125409   
H9       H      0.759480000000     0.825333333333     0.528950000000     0.125409   
H10      H      0.759480000000     0.825333333333     0.721050000000     0.12541    
H11      H      0.642820000000     0.813366666667     0.720800000000     0.125641   
H12      H      0.659480000000     0.674666666667     0.528950000000     0.125409   
H13      H      0.742820000000     0.686633333333     0.529200000000     0.12564    
H14      H      0.640520000000     0.841333333333     0.971050000000     0.125409   
H15      H      0.757180000000     0.853300000000     0.970800000000     0.12564    
H16      H      0.657180000000     0.980033333333     0.779200000000     0.12564    
O1       O      0.763860000000     0.958600000000     0.835850000000    -0.596821   
O2       O      0.670340000000     0.786766666667     0.663750000000    -0.578435   
O3       O      0.736140000000     0.791933333333     0.664150000000    -0.596822   
O4       O      0.770340000000     0.713233333333     0.586250000000    -0.578436   
O5       O      0.663860000000     0.874733333333     0.914150000000    -0.596821   
O6       O      0.696800000000     0.942800000000     0.875000000000    -0.750251   
O7       O      0.603200000000     0.776133333333     0.625000000000    -0.750252   
O8       O      0.629660000000     0.953433333333     0.836250000000    -0.578434   
O9       O      0.729660000000     0.879900000000     0.913750000000    -0.578434   
O10      O      0.636140000000     0.708066666667     0.585850000000    -0.596822   
O11      O      0.736140000000     0.791933333333     0.585850000000    -0.596822   
O12      O      0.703200000000     0.723866666667     0.625000000000    -0.750252   
O13      O      0.763860000000     0.958600000000     0.914150000000    -0.59682    
O14      O      0.629660000000     0.953433333333     0.913750000000    -0.578433   
O15      O      0.663860000000     0.874733333333     0.835850000000    -0.59682    
O16      O      0.729660000000     0.879900000000     0.836250000000    -0.578433   
O17      O      0.636140000000     0.708066666667     0.664150000000    -0.596822   
O18      O      0.770340000000     0.713233333333     0.663750000000    -0.578435   
O19      O      0.796800000000     0.890533333333     0.875000000000    -0.750251   
O20      O      0.670340000000     0.786766666667     0.586250000000    -0.578435   
V1       V      0.660140000000     0.744100000000     0.625000000000     1.81635    
V2       V      0.639860000000     0.910766666667     0.875000000000     1.81635    
V3       V      0.739860000000     0.922566666667     0.875000000000     1.81635    
V4       V      0.760140000000     0.755900000000     0.625000000000     1.81635    
C1       C      0.866000000000     0.154933333333     0.017500000000    -0.107365   
C2       C      0.997240000000     0.297200000000     0.428150000000     0.621827   
C3       C      0.964600000000     0.328700000000     0.482700000000    -0.106612   
C4       C      0.834000000000     0.321600000000     0.482500000000    -0.107366   
C5       C      0.902760000000     0.130533333333     0.071850000000     0.621829   
C6       C      0.901440000000     0.150766666667     0.034850000000    -0.016705   
C7       C      0.935400000000     0.162033333333     0.017300000000    -0.106604   
C8       C      0.997240000000     0.297200000000     0.321850000000     0.621828   
C9       C      0.998560000000     0.317433333333     0.284850000000    -0.016711   
C10      C      0.964600000000     0.328700000000     0.267300000000    -0.106603   
C11      C      0.834000000000     0.321600000000     0.267500000000    -0.107359   
C12      C      0.934000000000     0.178400000000     0.267500000000    -0.107365   
C13      C      0.902760000000     0.130533333333     0.178150000000     0.621828   
C14      C      0.935400000000     0.162033333333     0.232700000000    -0.106606   
C15      C      0.866000000000     0.154933333333     0.232500000000    -0.107364   
C16      C      0.802760000000     0.036133333333     0.071850000000     0.621829   
C17      C      0.801440000000     0.015900000000     0.034850000000    -0.016711   
C18      C      0.835400000000     0.004633333333     0.017300000000    -0.106597   
C19      C      0.966000000000     0.011733333333     0.017500000000    -0.107354   
C20      C      0.897240000000     0.202800000000     0.428150000000     0.621828   
C21      C      0.898560000000     0.182566666667     0.465150000000    -0.016712   
C22      C      0.864600000000     0.171300000000     0.482700000000    -0.106598   
C23      C      0.934000000000     0.178400000000     0.482500000000    -0.107356   
C24      C      0.901440000000     0.150766666667     0.215150000000    -0.016699   
C25      C      0.864600000000     0.171300000000     0.267300000000    -0.106607   
C26      C      0.998560000000     0.317433333333     0.465150000000    -0.016699   
C27      C      0.897240000000     0.202800000000     0.321850000000     0.621827   
C28      C      0.966000000000     0.011733333333     0.232500000000    -0.10736    
C29      C      0.835400000000     0.004633333333     0.232700000000    -0.106607   
C30      C      0.801440000000     0.015900000000     0.215150000000    -0.016699   
C31      C      0.802760000000     0.036133333333     0.178150000000     0.621828   
C32      C      0.898560000000     0.182566666667     0.284850000000    -0.0167     
H1       H      0.859480000000     0.008000000000     0.221050000000     0.12541    
H2       H      0.942820000000     0.019966666667     0.220800000000     0.12564    
H3       H      0.840520000000     0.174666666667     0.278950000000     0.125409   
H4       H      0.957180000000     0.186633333333     0.279200000000     0.12564    
H5       H      0.940520000000     0.325333333333     0.471050000000     0.12541    
H6       H      0.857180000000     0.313366666667     0.470800000000     0.12564    
H7       H      0.842820000000     0.146700000000     0.029200000000     0.125641   
H8       H      0.940520000000     0.325333333333     0.278950000000     0.125409   
H9       H      0.959480000000     0.158666666667     0.028950000000     0.125409   
H10      H      0.959480000000     0.158666666667     0.221050000000     0.12541    
H11      H      0.842820000000     0.146700000000     0.220800000000     0.125641   
H12      H      0.859480000000     0.008000000000     0.028950000000     0.125409   
H13      H      0.942820000000     0.019966666667     0.029200000000     0.12564    
H14      H      0.840520000000     0.174666666667     0.471050000000     0.125409   
H15      H      0.957180000000     0.186633333333     0.470800000000     0.12564    
H16      H      0.857180000000     0.313366666667     0.279200000000     0.12564    
O1       O      0.963860000000     0.291933333333     0.335850000000    -0.596821   
O2       O      0.870340000000     0.120100000000     0.163750000000    -0.578435   
O3       O      0.936140000000     0.125266666667     0.164150000000    -0.596822   
O4       O      0.970340000000     0.046566666667     0.086250000000    -0.578436   
O5       O      0.863860000000     0.208066666667     0.414150000000    -0.596821   
O6       O      0.896800000000     0.276133333333     0.375000000000    -0.750251   
O7       O      0.803200000000     0.109466666667     0.125000000000    -0.750252   
O8       O      0.829660000000     0.286766666667     0.336250000000    -0.578434   
O9       O      0.929660000000     0.213233333333     0.413750000000    -0.578434   
O10      O      0.836140000000     0.041400000000     0.085850000000    -0.596822   
O11      O      0.936140000000     0.125266666667     0.085850000000    -0.596822   
O12      O      0.903200000000     0.057200000000     0.125000000000    -0.750252   
O13      O      0.963860000000     0.291933333333     0.414150000000    -0.59682    
O14      O      0.829660000000     0.286766666667     0.413750000000    -0.578433   
O15      O      0.863860000000     0.208066666667     0.335850000000    -0.59682    
O16      O      0.929660000000     0.213233333333     0.336250000000    -0.578433   
O17      O      0.836140000000     0.041400000000     0.164150000000    -0.596822   
O18      O      0.970340000000     0.046566666667     0.163750000000    -0.578435   
O19      O      0.996800000000     0.223866666667     0.375000000000    -0.750251   
O20      O      0.870340000000     0.120100000000     0.086250000000    -0.578435   
V1       V      0.860140000000     0.077433333333     0.125000000000     1.81635    
V2       V      0.839860000000     0.244100000000     0.375000000000     1.81635    
V3       V      0.939860000000     0.255900000000     0.375000000000     1.81635    
V4       V      0.960140000000     0.089233333333     0.125000000000     1.81635    
C1       C      0.866000000000     0.154933333333     0.517500000000    -0.107365   
C2       C      0.997240000000     0.297200000000     0.928150000000     0.621827   
C3       C      0.964600000000     0.328700000000     0.982700000000    -0.106612   
C4       C      0.834000000000     0.321600000000     0.982500000000    -0.107366   
C5       C      0.902760000000     0.130533333333     0.571850000000     0.621829   
C6       C      0.901440000000     0.150766666667     0.534850000000    -0.016705   
C7       C      0.935400000000     0.162033333333     0.517300000000    -0.106604   
C8       C      0.997240000000     0.297200000000     0.821850000000     0.621828   
C9       C      0.998560000000     0.317433333333     0.784850000000    -0.016711   
C10      C      0.964600000000     0.328700000000     0.767300000000    -0.106603   
C11      C      0.834000000000     0.321600000000     0.767500000000    -0.107359   
C12      C      0.934000000000     0.178400000000     0.767500000000    -0.107365   
C13      C      0.902760000000     0.130533333333     0.678150000000     0.621828   
C14      C      0.935400000000     0.162033333333     0.732700000000    -0.106606   
C15      C      0.866000000000     0.154933333333     0.732500000000    -0.107364   
C16      C      0.802760000000     0.036133333333     0.571850000000     0.621829   
C17      C      0.801440000000     0.015900000000     0.534850000000    -0.016711   
C18      C      0.835400000000     0.004633333333     0.517300000000    -0.106597   
C19      C      0.966000000000     0.011733333333     0.517500000000    -0.107354   
C20      C      0.897240000000     0.202800000000     0.928150000000     0.621828   
C21      C      0.898560000000     0.182566666667     0.965150000000    -0.016712   
C22      C      0.864600000000     0.171300000000     0.982700000000    -0.106598   
C23      C      0.934000000000     0.178400000000     0.982500000000    -0.107356   
C24      C      0.901440000000     0.150766666667     0.715150000000    -0.016699   
C25      C      0.864600000000     0.171300000000     0.767300000000    -0.106607   
C26      C      0.998560000000     0.317433333333     0.965150000000    -0.016699   
C27      C      0.897240000000     0.202800000000     0.821850000000     0.621827   
C28      C      0.966000000000     0.011733333333     0.732500000000    -0.10736    
C29      C      0.835400000000     0.004633333333     0.732700000000    -0.106607   
C30      C      0.801440000000     0.015900000000     0.715150000000    -0.016699   
C31      C      0.802760000000     0.036133333333     0.678150000000     0.621828   
C32      C      0.898560000000     0.182566666667     0.784850000000    -0.0167     
H1       H      0.859480000000     0.008000000000     0.721050000000     0.12541    
H2       H      0.942820000000     0.019966666667     0.720800000000     0.12564    
H3       H      0.840520000000     0.174666666667     0.778950000000     0.125409   
H4       H      0.957180000000     0.186633333333     0.779200000000     0.12564    
H5       H      0.940520000000     0.325333333333     0.971050000000     0.12541    
H6       H      0.857180000000     0.313366666667     0.970800000000     0.12564    
H7       H      0.842820000000     0.146700000000     0.529200000000     0.125641   
H8       H      0.940520000000     0.325333333333     0.778950000000     0.125409   
H9       H      0.959480000000     0.158666666667     0.528950000000     0.125409   
H10      H      0.959480000000     0.158666666667     0.721050000000     0.12541    
H11      H      0.842820000000     0.146700000000     0.720800000000     0.125641   
H12      H      0.859480000000     0.008000000000     0.528950000000     0.125409   
H13      H      0.942820000000     0.019966666667     0.529200000000     0.12564    
H14      H      0.840520000000     0.174666666667     0.971050000000     0.125409   
H15      H      0.957180000000     0.186633333333     0.970800000000     0.12564    
H16      H      0.857180000000     0.313366666667     0.779200000000     0.12564    
O1       O      0.963860000000     0.291933333333     0.835850000000    -0.596821   
O2       O      0.870340000000     0.120100000000     0.663750000000    -0.578435   
O3       O      0.936140000000     0.125266666667     0.664150000000    -0.596822   
O4       O      0.970340000000     0.046566666667     0.586250000000    -0.578436   
O5       O      0.863860000000     0.208066666667     0.914150000000    -0.596821   
O6       O      0.896800000000     0.276133333333     0.875000000000    -0.750251   
O7       O      0.803200000000     0.109466666667     0.625000000000    -0.750252   
O8       O      0.829660000000     0.286766666667     0.836250000000    -0.578434   
O9       O      0.929660000000     0.213233333333     0.913750000000    -0.578434   
O10      O      0.836140000000     0.041400000000     0.585850000000    -0.596822   
O11      O      0.936140000000     0.125266666667     0.585850000000    -0.596822   
O12      O      0.903200000000     0.057200000000     0.625000000000    -0.750252   
O13      O      0.963860000000     0.291933333333     0.914150000000    -0.59682    
O14      O      0.829660000000     0.286766666667     0.913750000000    -0.578433   
O15      O      0.863860000000     0.208066666667     0.835850000000    -0.59682    
O16      O      0.929660000000     0.213233333333     0.836250000000    -0.578433   
O17      O      0.836140000000     0.041400000000     0.664150000000    -0.596822   
O18      O      0.970340000000     0.046566666667     0.663750000000    -0.578435   
O19      O      0.996800000000     0.223866666667     0.875000000000    -0.750251   
O20      O      0.870340000000     0.120100000000     0.586250000000    -0.578435   
V1       V      0.860140000000     0.077433333333     0.625000000000     1.81635    
V2       V      0.839860000000     0.244100000000     0.875000000000     1.81635    
V3       V      0.939860000000     0.255900000000     0.875000000000     1.81635    
V4       V      0.960140000000     0.089233333333     0.625000000000     1.81635    
C1       C      0.866000000000     0.488266666667     0.017500000000    -0.107365   
C2       C      0.997240000000     0.630533333333     0.428150000000     0.621827   
C3       C      0.964600000000     0.662033333333     0.482700000000    -0.106612   
C4       C      0.834000000000     0.654933333333     0.482500000000    -0.107366   
C5       C      0.902760000000     0.463866666667     0.071850000000     0.621829   
C6       C      0.901440000000     0.484100000000     0.034850000000    -0.016705   
C7       C      0.935400000000     0.495366666667     0.017300000000    -0.106604   
C8       C      0.997240000000     0.630533333333     0.321850000000     0.621828   
C9       C      0.998560000000     0.650766666667     0.284850000000    -0.016711   
C10      C      0.964600000000     0.662033333333     0.267300000000    -0.106603   
C11      C      0.834000000000     0.654933333333     0.267500000000    -0.107359   
C12      C      0.934000000000     0.511733333333     0.267500000000    -0.107365   
C13      C      0.902760000000     0.463866666667     0.178150000000     0.621828   
C14      C      0.935400000000     0.495366666667     0.232700000000    -0.106606   
C15      C      0.866000000000     0.488266666667     0.232500000000    -0.107364   
C16      C      0.802760000000     0.369466666667     0.071850000000     0.621829   
C17      C      0.801440000000     0.349233333333     0.034850000000    -0.016711   
C18      C      0.835400000000     0.337966666667     0.017300000000    -0.106597   
C19      C      0.966000000000     0.345066666667     0.017500000000    -0.107354   
C20      C      0.897240000000     0.536133333333     0.428150000000     0.621828   
C21      C      0.898560000000     0.515900000000     0.465150000000    -0.016712   
C22      C      0.864600000000     0.504633333333     0.482700000000    -0.106598   
C23      C      0.934000000000     0.511733333333     0.482500000000    -0.107356   
C24      C      0.901440000000     0.484100000000     0.215150000000    -0.016699   
C25      C      0.864600000000     0.504633333333     0.267300000000    -0.106607   
C26      C      0.998560000000     0.650766666667     0.465150000000    -0.016699   
C27      C      0.897240000000     0.536133333333     0.321850000000     0.621827   
C28      C      0.966000000000     0.345066666667     0.232500000000    -0.10736    
C29      C      0.835400000000     0.337966666667     0.232700000000    -0.106607   
C30      C      0.801440000000     0.349233333333     0.215150000000    -0.016699   
C31      C      0.802760000000     0.369466666667     0.178150000000     0.621828   
C32      C      0.898560000000     0.515900000000     0.284850000000    -0.0167     
H1       H      0.859480000000     0.341333333333     0.221050000000     0.12541    
H2       H      0.942820000000     0.353300000000     0.220800000000     0.12564    
H3       H      0.840520000000     0.508000000000     0.278950000000     0.125409   
H4       H      0.957180000000     0.519966666667     0.279200000000     0.12564    
H5       H      0.940520000000     0.658666666667     0.471050000000     0.12541    
H6       H      0.857180000000     0.646700000000     0.470800000000     0.12564    
H7       H      0.842820000000     0.480033333333     0.029200000000     0.125641   
H8       H      0.940520000000     0.658666666667     0.278950000000     0.125409   
H9       H      0.959480000000     0.492000000000     0.028950000000     0.125409   
H10      H      0.959480000000     0.492000000000     0.221050000000     0.12541    
H11      H      0.842820000000     0.480033333333     0.220800000000     0.125641   
H12      H      0.859480000000     0.341333333333     0.028950000000     0.125409   
H13      H      0.942820000000     0.353300000000     0.029200000000     0.12564    
H14      H      0.840520000000     0.508000000000     0.471050000000     0.125409   
H15      H      0.957180000000     0.519966666667     0.470800000000     0.12564    
H16      H      0.857180000000     0.646700000000     0.279200000000     0.12564    
O1       O      0.963860000000     0.625266666667     0.335850000000    -0.596821   
O2       O      0.870340000000     0.453433333333     0.163750000000    -0.578435   
O3       O      0.936140000000     0.458600000000     0.164150000000    -0.596822   
O4       O      0.970340000000     0.379900000000     0.086250000000    -0.578436   
O5       O      0.863860000000     0.541400000000     0.414150000000    -0.596821   
O6       O      0.896800000000     0.609466666667     0.375000000000    -0.750251   
O7       O      0.803200000000     0.442800000000     0.125000000000    -0.750252   
O8       O      0.829660000000     0.620100000000     0.336250000000    -0.578434   
O9       O      0.929660000000     0.546566666667     0.413750000000    -0.578434   
O10      O      0.836140000000     0.374733333333     0.085850000000    -0.596822   
O11      O      0.936140000000     0.458600000000     0.085850000000    -0.596822   
O12      O      0.903200000000     0.390533333333     0.125000000000    -0.750252   
O13      O      0.963860000000     0.625266666667     0.414150000000    -0.59682    
O14      O      0.829660000000     0.620100000000     0.413750000000    -0.578433   
O15      O      0.863860000000     0.541400000000     0.335850000000    -0.59682    
O16      O      0.929660000000     0.546566666667     0.336250000000    -0.578433   
O17      O      0.836140000000     0.374733333333     0.164150000000    -0.596822   
O18      O      0.970340000000     0.379900000000     0.163750000000    -0.578435   
O19      O      0.996800000000     0.557200000000     0.375000000000    -0.750251   
O20      O      0.870340000000     0.453433333333     0.086250000000    -0.578435   
V1       V      0.860140000000     0.410766666667     0.125000000000     1.81635    
V2       V      0.839860000000     0.577433333333     0.375000000000     1.81635    
V3       V      0.939860000000     0.589233333333     0.375000000000     1.81635    
V4       V      0.960140000000     0.422566666667     0.125000000000     1.81635    
C1       C      0.866000000000     0.488266666667     0.517500000000    -0.107365   
C2       C      0.997240000000     0.630533333333     0.928150000000     0.621827   
C3       C      0.964600000000     0.662033333333     0.982700000000    -0.106612   
C4       C      0.834000000000     0.654933333333     0.982500000000    -0.107366   
C5       C      0.902760000000     0.463866666667     0.571850000000     0.621829   
C6       C      0.901440000000     0.484100000000     0.534850000000    -0.016705   
C7       C      0.935400000000     0.495366666667     0.517300000000    -0.106604   
C8       C      0.997240000000     0.630533333333     0.821850000000     0.621828   
C9       C      0.998560000000     0.650766666667     0.784850000000    -0.016711   
C10      C      0.964600000000     0.662033333333     0.767300000000    -0.106603   
C11      C      0.834000000000     0.654933333333     0.767500000000    -0.107359   
C12      C      0.934000000000     0.511733333333     0.767500000000    -0.107365   
C13      C      0.902760000000     0.463866666667     0.678150000000     0.621828   
C14      C      0.935400000000     0.495366666667     0.732700000000    -0.106606   
C15      C      0.866000000000     0.488266666667     0.732500000000    -0.107364   
C16      C      0.802760000000     0.369466666667     0.571850000000     0.621829   
C17      C      0.801440000000     0.349233333333     0.534850000000    -0.016711   
C18      C      0.835400000000     0.337966666667     0.517300000000    -0.106597   
C19      C      0.966000000000     0.345066666667     0.517500000000    -0.107354   
C20      C      0.897240000000     0.536133333333     0.928150000000     0.621828   
C21      C      0.898560000000     0.515900000000     0.965150000000    -0.016712   
C22      C      0.864600000000     0.504633333333     0.982700000000    -0.106598   
C23      C      0.934000000000     0.511733333333     0.982500000000    -0.107356   
C24      C      0.901440000000     0.484100000000     0.715150000000    -0.016699   
C25      C      0.864600000000     0.504633333333     0.767300000000    -0.106607   
C26      C      0.998560000000     0.650766666667     0.965150000000    -0.016699   
C27      C      0.897240000000     0.536133333333     0.821850000000     0.621827   
C28      C      0.966000000000     0.345066666667     0.732500000000    -0.10736    
C29      C      0.835400000000     0.337966666667     0.732700000000    -0.106607   
C30      C      0.801440000000     0.349233333333     0.715150000000    -0.016699   
C31      C      0.802760000000     0.369466666667     0.678150000000     0.621828   
C32      C      0.898560000000     0.515900000000     0.784850000000    -0.0167     
H1       H      0.859480000000     0.341333333333     0.721050000000     0.12541    
H2       H      0.942820000000     0.353300000000     0.720800000000     0.12564    
H3       H      0.840520000000     0.508000000000     0.778950000000     0.125409   
H4       H      0.957180000000     0.519966666667     0.779200000000     0.12564    
H5       H      0.940520000000     0.658666666667     0.971050000000     0.12541    
H6       H      0.857180000000     0.646700000000     0.970800000000     0.12564    
H7       H      0.842820000000     0.480033333333     0.529200000000     0.125641   
H8       H      0.940520000000     0.658666666667     0.778950000000     0.125409   
H9       H      0.959480000000     0.492000000000     0.528950000000     0.125409   
H10      H      0.959480000000     0.492000000000     0.721050000000     0.12541    
H11      H      0.842820000000     0.480033333333     0.720800000000     0.125641   
H12      H      0.859480000000     0.341333333333     0.528950000000     0.125409   
H13      H      0.942820000000     0.353300000000     0.529200000000     0.12564    
H14      H      0.840520000000     0.508000000000     0.971050000000     0.125409   
H15      H      0.957180000000     0.519966666667     0.970800000000     0.12564    
H16      H      0.857180000000     0.646700000000     0.779200000000     0.12564    
O1       O      0.963860000000     0.625266666667     0.835850000000    -0.596821   
O2       O      0.870340000000     0.453433333333     0.663750000000    -0.578435   
O3       O      0.936140000000     0.458600000000     0.664150000000    -0.596822   
O4       O      0.970340000000     0.379900000000     0.586250000000    -0.578436   
O5       O      0.863860000000     0.541400000000     0.914150000000    -0.596821   
O6       O      0.896800000000     0.609466666667     0.875000000000    -0.750251   
O7       O      0.803200000000     0.442800000000     0.625000000000    -0.750252   
O8       O      0.829660000000     0.620100000000     0.836250000000    -0.578434   
O9       O      0.929660000000     0.546566666667     0.913750000000    -0.578434   
O10      O      0.836140000000     0.374733333333     0.585850000000    -0.596822   
O11      O      0.936140000000     0.458600000000     0.585850000000    -0.596822   
O12      O      0.903200000000     0.390533333333     0.625000000000    -0.750252   
O13      O      0.963860000000     0.625266666667     0.914150000000    -0.59682    
O14      O      0.829660000000     0.620100000000     0.913750000000    -0.578433   
O15      O      0.863860000000     0.541400000000     0.835850000000    -0.59682    
O16      O      0.929660000000     0.546566666667     0.836250000000    -0.578433   
O17      O      0.836140000000     0.374733333333     0.664150000000    -0.596822   
O18      O      0.970340000000     0.379900000000     0.663750000000    -0.578435   
O19      O      0.996800000000     0.557200000000     0.875000000000    -0.750251   
O20      O      0.870340000000     0.453433333333     0.586250000000    -0.578435   
V1       V      0.860140000000     0.410766666667     0.625000000000     1.81635    
V2       V      0.839860000000     0.577433333333     0.875000000000     1.81635    
V3       V      0.939860000000     0.589233333333     0.875000000000     1.81635    
V4       V      0.960140000000     0.422566666667     0.625000000000     1.81635    
C1       C      0.866000000000     0.821600000000     0.017500000000    -0.107365   
C2       C      0.997240000000     0.963866666667     0.428150000000     0.621827   
C3       C      0.964600000000     0.995366666667     0.482700000000    -0.106612   
C4       C      0.834000000000     0.988266666667     0.482500000000    -0.107366   
C5       C      0.902760000000     0.797200000000     0.071850000000     0.621829   
C6       C      0.901440000000     0.817433333333     0.034850000000    -0.016705   
C7       C      0.935400000000     0.828700000000     0.017300000000    -0.106604   
C8       C      0.997240000000     0.963866666667     0.321850000000     0.621828   
C9       C      0.998560000000     0.984100000000     0.284850000000    -0.016711   
C10      C      0.964600000000     0.995366666667     0.267300000000    -0.106603   
C11      C      0.834000000000     0.988266666667     0.267500000000    -0.107359   
C12      C      0.934000000000     0.845066666667     0.267500000000    -0.107365   
C13      C      0.902760000000     0.797200000000     0.178150000000     0.621828   
C14      C      0.935400000000     0.828700000000     0.232700000000    -0.106606   
C15      C      0.866000000000     0.821600000000     0.232500000000    -0.107364   
C16      C      0.802760000000     0.702800000000     0.071850000000     0.621829   
C17      C      0.801440000000     0.682566666667     0.034850000000    -0.016711   
C18      C      0.835400000000     0.671300000000     0.017300000000    -0.106597   
C19      C      0.966000000000     0.678400000000     0.017500000000    -0.107354   
C20      C      0.897240000000     0.869466666667     0.428150000000     0.621828   
C21      C      0.898560000000     0.849233333333     0.465150000000    -0.016712   
C22      C      0.864600000000     0.837966666667     0.482700000000    -0.106598   
C23      C      0.934000000000     0.845066666667     0.482500000000    -0.107356   
C24      C      0.901440000000     0.817433333333     0.215150000000    -0.016699   
C25      C      0.864600000000     0.837966666667     0.267300000000    -0.106607   
C26      C      0.998560000000     0.984100000000     0.465150000000    -0.016699   
C27      C      0.897240000000     0.869466666667     0.321850000000     0.621827   
C28      C      0.966000000000     0.678400000000     0.232500000000    -0.10736    
C29      C      0.835400000000     0.671300000000     0.232700000000    -0.106607   
C30      C      0.801440000000     0.682566666667     0.215150000000    -0.016699   
C31      C      0.802760000000     0.702800000000     0.178150000000     0.621828   
C32      C      0.898560000000     0.849233333333     0.284850000000    -0.0167     
H1       H      0.859480000000     0.674666666667     0.221050000000     0.12541    
H2       H      0.942820000000     0.686633333333     0.220800000000     0.12564    
H3       H      0.840520000000     0.841333333333     0.278950000000     0.125409   
H4       H      0.957180000000     0.853300000000     0.279200000000     0.12564    
H5       H      0.940520000000     0.992000000000     0.471050000000     0.12541    
H6       H      0.857180000000     0.980033333333     0.470800000000     0.12564    
H7       H      0.842820000000     0.813366666667     0.029200000000     0.125641   
H8       H      0.940520000000     0.992000000000     0.278950000000     0.125409   
H9       H      0.959480000000     0.825333333333     0.028950000000     0.125409   
H10      H      0.959480000000     0.825333333333     0.221050000000     0.12541    
H11      H      0.842820000000     0.813366666667     0.220800000000     0.125641   
H12      H      0.859480000000     0.674666666667     0.028950000000     0.125409   
H13      H      0.942820000000     0.686633333333     0.029200000000     0.12564    
H14      H      0.840520000000     0.841333333333     0.471050000000     0.125409   
H15      H      0.957180000000     0.853300000000     0.470800000000     0.12564    
H16      H      0.857180000000     0.980033333333     0.279200000000     0.12564    
O1       O      0.963860000000     0.958600000000     0.335850000000    -0.596821   
O2       O      0.870340000000     0.786766666667     0.163750000000    -0.578435   
O3       O      0.936140000000     0.791933333333     0.164150000000    -0.596822   
O4       O      0.970340000000     0.713233333333     0.086250000000    -0.578436   
O5       O      0.863860000000     0.874733333333     0.414150000000    -0.596821   
O6       O      0.896800000000     0.942800000000     0.375000000000    -0.750251   
O7       O      0.803200000000     0.776133333333     0.125000000000    -0.750252   
O8       O      0.829660000000     0.953433333333     0.336250000000    -0.578434   
O9       O      0.929660000000     0.879900000000     0.413750000000    -0.578434   
O10      O      0.836140000000     0.708066666667     0.085850000000    -0.596822   
O11      O      0.936140000000     0.791933333333     0.085850000000    -0.596822   
O12      O      0.903200000000     0.723866666667     0.125000000000    -0.750252   
O13      O      0.963860000000     0.958600000000     0.414150000000    -0.59682    
O14      O      0.829660000000     0.953433333333     0.413750000000    -0.578433   
O15      O      0.863860000000     0.874733333333     0.335850000000    -0.59682    
O16      O      0.929660000000     0.879900000000     0.336250000000    -0.578433   
O17      O      0.836140000000     0.708066666667     0.164150000000    -0.596822   
O18      O      0.970340000000     0.713233333333     0.163750000000    -0.578435   
O19      O      0.996800000000     0.890533333333     0.375000000000    -0.750251   
O20      O      0.870340000000     0.786766666667     0.086250000000    -0.578435   
V1       V      0.860140000000     0.744100000000     0.125000000000     1.81635    
V2       V      0.839860000000     0.910766666667     0.375000000000     1.81635    
V3       V      0.939860000000     0.922566666667     0.375000000000     1.81635    
V4       V      0.960140000000     0.755900000000     0.125000000000     1.81635    
C1       C      0.866000000000     0.821600000000     0.517500000000    -0.107365   
C2       C      0.997240000000     0.963866666667     0.928150000000     0.621827   
C3       C      0.964600000000     0.995366666667     0.982700000000    -0.106612   
C4       C      0.834000000000     0.988266666667     0.982500000000    -0.107366   
C5       C      0.902760000000     0.797200000000     0.571850000000     0.621829   
C6       C      0.901440000000     0.817433333333     0.534850000000    -0.016705   
C7       C      0.935400000000     0.828700000000     0.517300000000    -0.106604   
C8       C      0.997240000000     0.963866666667     0.821850000000     0.621828   
C9       C      0.998560000000     0.984100000000     0.784850000000    -0.016711   
C10      C      0.964600000000     0.995366666667     0.767300000000    -0.106603   
C11      C      0.834000000000     0.988266666667     0.767500000000    -0.107359   
C12      C      0.934000000000     0.845066666667     0.767500000000    -0.107365   
C13      C      0.902760000000     0.797200000000     0.678150000000     0.621828   
C14      C      0.935400000000     0.828700000000     0.732700000000    -0.106606   
C15      C      0.866000000000     0.821600000000     0.732500000000    -0.107364   
C16      C      0.802760000000     0.702800000000     0.571850000000     0.621829   
C17      C      0.801440000000     0.682566666667     0.534850000000    -0.016711   
C18      C      0.835400000000     0.671300000000     0.517300000000    -0.106597   
C19      C      0.966000000000     0.678400000000     0.517500000000    -0.107354   
C20      C      0.897240000000     0.869466666667     0.928150000000     0.621828   
C21      C      0.898560000000     0.849233333333     0.965150000000    -0.016712   
C22      C      0.864600000000     0.837966666667     0.982700000000    -0.106598   
C23      C      0.934000000000     0.845066666667     0.982500000000    -0.107356   
C24      C      0.901440000000     0.817433333333     0.715150000000    -0.016699   
C25      C      0.864600000000     0.837966666667     0.767300000000    -0.106607   
C26      C      0.998560000000     0.984100000000     0.965150000000    -0.016699   
C27      C      0.897240000000     0.869466666667     0.821850000000     0.621827   
C28      C      0.966000000000     0.678400000000     0.732500000000    -0.10736    
C29      C      0.835400000000     0.671300000000     0.732700000000    -0.106607   
C30      C      0.801440000000     0.682566666667     0.715150000000    -0.016699   
C31      C      0.802760000000     0.702800000000     0.678150000000     0.621828   
C32      C      0.898560000000     0.849233333333     0.784850000000    -0.0167     
H1       H      0.859480000000     0.674666666667     0.721050000000     0.12541    
H2       H      0.942820000000     0.686633333333     0.720800000000     0.12564    
H3       H      0.840520000000     0.841333333333     0.778950000000     0.125409   
H4       H      0.957180000000     0.853300000000     0.779200000000     0.12564    
H5       H      0.940520000000     0.992000000000     0.971050000000     0.12541    
H6       H      0.857180000000     0.980033333333     0.970800000000     0.12564    
H7       H      0.842820000000     0.813366666667     0.529200000000     0.125641   
H8       H      0.940520000000     0.992000000000     0.778950000000     0.125409   
H9       H      0.959480000000     0.825333333333     0.528950000000     0.125409   
H10      H      0.959480000000     0.825333333333     0.721050000000     0.12541    
H11      H      0.842820000000     0.813366666667     0.720800000000     0.125641   
H12      H      0.859480000000     0.674666666667     0.528950000000     0.125409   
H13      H      0.942820000000     0.686633333333     0.529200000000     0.12564    
H14      H      0.840520000000     0.841333333333     0.971050000000     0.125409   
H15      H      0.957180000000     0.853300000000     0.970800000000     0.12564    
H16      H      0.857180000000     0.980033333333     0.779200000000     0.12564    
O1       O      0.963860000000     0.958600000000     0.835850000000    -0.596821   
O2       O      0.870340000000     0.786766666667     0.663750000000    -0.578435   
O3       O      0.936140000000     0.791933333333     0.664150000000    -0.596822   
O4       O      0.970340000000     0.713233333333     0.586250000000    -0.578436   
O5       O      0.863860000000     0.874733333333     0.914150000000    -0.596821   
O6       O      0.896800000000     0.942800000000     0.875000000000    -0.750251   
O7       O      0.803200000000     0.776133333333     0.625000000000    -0.750252   
O8       O      0.829660000000     0.953433333333     0.836250000000    -0.578434   
O9       O      0.929660000000     0.879900000000     0.913750000000    -0.578434   
O10      O      0.836140000000     0.708066666667     0.585850000000    -0.596822   
O11      O      0.936140000000     0.791933333333     0.585850000000    -0.596822   
O12      O      0.903200000000     0.723866666667     0.625000000000    -0.750252   
O13      O      0.963860000000     0.958600000000     0.914150000000    -0.59682    
O14      O      0.829660000000     0.953433333333     0.913750000000    -0.578433   
O15      O      0.863860000000     0.874733333333     0.835850000000    -0.59682    
O16      O      0.929660000000     0.879900000000     0.836250000000    -0.578433   
O17      O      0.836140000000     0.708066666667     0.664150000000    -0.596822   
O18      O      0.970340000000     0.713233333333     0.663750000000    -0.578435   
O19      O      0.996800000000     0.890533333333     0.875000000000    -0.750251   
O20      O      0.870340000000     0.786766666667     0.586250000000    -0.578435   
V1       V      0.860140000000     0.744100000000     0.625000000000     1.81635    
V2       V      0.839860000000     0.910766666667     0.875000000000     1.81635    
V3       V      0.939860000000     0.922566666667     0.875000000000     1.81635    
V4       V      0.960140000000     0.755900000000     0.625000000000     1.81635    


