data_IKEBUV01_clean

_audit_creation_method RASPA-1.0
_audit_creation_date 2025-9-8
_audit_author_name ''

_cell_length_a    8.4221
_cell_length_b    8.4221
_cell_length_c    12.049
_cell_angle_alpha 90
_cell_angle_beta  90
_cell_angle_gamma 90
_cell_volume      41023.5

_symmetry_cell_setting          triclinic
_symmetry_space_group_name_Hall 'P 1'
_symmetry_space_group_name_H-M  'P 1'
_symmetry_Int_Tables_number     1

_symmetry_equiv_pos_as_xyz 'x,y,z'

loop_
_atom_site_label
_atom_site_type_symbol
_atom_site_fract_x
_atom_site_fract_y
_atom_site_fract_z
_atom_site_charge
C        C      0.097025000000     0.189725000000     0.259866666667    -0.695      
C        C      0.114275000000     0.193725000000     0.298666666667    -0.695      
C        C      0.090100000000     0.217800000000     0.325933333333    -0.695      
C        C      0.152975000000     0.060275000000     0.093200000000    -0.695      
C        C      0.135725000000     0.056275000000     0.132000000000    -0.695      
C        C      0.159900000000     0.032200000000     0.159266666667    -0.695      
C        C      0.060275000000     0.097025000000     0.009866666667    -0.695      
C        C      0.056275000000     0.114275000000     0.048666666667    -0.695      
C        C      0.032200000000     0.090100000000     0.075933333333    -0.695      
C        C      0.189725000000     0.152975000000     0.176533333333    -0.695      
C        C      0.193725000000     0.135725000000     0.215333333333    -0.695      
C        C      0.217800000000     0.159900000000     0.242600000000    -0.695      
C        C      0.097025000000     0.189725000000     0.593200000000    -0.695      
C        C      0.114275000000     0.193725000000     0.632000000000    -0.695      
C        C      0.090100000000     0.217800000000     0.659266666667    -0.695      
C        C      0.152975000000     0.060275000000     0.426533333333    -0.695      
C        C      0.135725000000     0.056275000000     0.465333333333    -0.695      
C        C      0.159900000000     0.032200000000     0.492600000000    -0.695      
C        C      0.060275000000     0.097025000000     0.343200000000    -0.695      
C        C      0.056275000000     0.114275000000     0.382000000000    -0.695      
C        C      0.032200000000     0.090100000000     0.409266666667    -0.695      
C        C      0.189725000000     0.152975000000     0.509866666667    -0.695      
C        C      0.193725000000     0.135725000000     0.548666666667    -0.695      
C        C      0.217800000000     0.159900000000     0.575933333333    -0.695      
C        C      0.097025000000     0.189725000000     0.926533333333    -0.695      
C        C      0.114275000000     0.193725000000     0.965333333333    -0.695      
C        C      0.090100000000     0.217800000000     0.992600000000    -0.695      
C        C      0.152975000000     0.060275000000     0.759866666667    -0.695      
C        C      0.135725000000     0.056275000000     0.798666666667    -0.695      
C        C      0.159900000000     0.032200000000     0.825933333333    -0.695      
C        C      0.060275000000     0.097025000000     0.676533333333    -0.695      
C        C      0.056275000000     0.114275000000     0.715333333333    -0.695      
C        C      0.032200000000     0.090100000000     0.742600000000    -0.695      
C        C      0.189725000000     0.152975000000     0.843200000000    -0.695      
C        C      0.193725000000     0.135725000000     0.882000000000    -0.695      
C        C      0.217800000000     0.159900000000     0.909266666667    -0.695      
C        C      0.097025000000     0.439725000000     0.259866666667    -0.695      
C        C      0.114275000000     0.443725000000     0.298666666667    -0.695      
C        C      0.090100000000     0.467800000000     0.325933333333    -0.695      
C        C      0.152975000000     0.310275000000     0.093200000000    -0.695      
C        C      0.135725000000     0.306275000000     0.132000000000    -0.695      
C        C      0.159900000000     0.282200000000     0.159266666667    -0.695      
C        C      0.060275000000     0.347025000000     0.009866666667    -0.695      
C        C      0.056275000000     0.364275000000     0.048666666667    -0.695      
C        C      0.032200000000     0.340100000000     0.075933333333    -0.695      
C        C      0.189725000000     0.402975000000     0.176533333333    -0.695      
C        C      0.193725000000     0.385725000000     0.215333333333    -0.695      
C        C      0.217800000000     0.409900000000     0.242600000000    -0.695      
C        C      0.097025000000     0.439725000000     0.593200000000    -0.695      
C        C      0.114275000000     0.443725000000     0.632000000000    -0.695      
C        C      0.090100000000     0.467800000000     0.659266666667    -0.695      
C        C      0.152975000000     0.310275000000     0.426533333333    -0.695      
C        C      0.135725000000     0.306275000000     0.465333333333    -0.695      
C        C      0.159900000000     0.282200000000     0.492600000000    -0.695      
C        C      0.060275000000     0.347025000000     0.343200000000    -0.695      
C        C      0.056275000000     0.364275000000     0.382000000000    -0.695      
C        C      0.032200000000     0.340100000000     0.409266666667    -0.695      
C        C      0.189725000000     0.402975000000     0.509866666667    -0.695      
C        C      0.193725000000     0.385725000000     0.548666666667    -0.695      
C        C      0.217800000000     0.409900000000     0.575933333333    -0.695      
C        C      0.097025000000     0.439725000000     0.926533333333    -0.695      
C        C      0.114275000000     0.443725000000     0.965333333333    -0.695      
C        C      0.090100000000     0.467800000000     0.992600000000    -0.695      
C        C      0.152975000000     0.310275000000     0.759866666667    -0.695      
C        C      0.135725000000     0.306275000000     0.798666666667    -0.695      
C        C      0.159900000000     0.282200000000     0.825933333333    -0.695      
C        C      0.060275000000     0.347025000000     0.676533333333    -0.695      
C        C      0.056275000000     0.364275000000     0.715333333333    -0.695      
C        C      0.032200000000     0.340100000000     0.742600000000    -0.695      
C        C      0.189725000000     0.402975000000     0.843200000000    -0.695      
C        C      0.193725000000     0.385725000000     0.882000000000    -0.695      
C        C      0.217800000000     0.409900000000     0.909266666667    -0.695      
C        C      0.097025000000     0.689725000000     0.259866666667    -0.695      
C        C      0.114275000000     0.693725000000     0.298666666667    -0.695      
C        C      0.090100000000     0.717800000000     0.325933333333    -0.695      
C        C      0.152975000000     0.560275000000     0.093200000000    -0.695      
C        C      0.135725000000     0.556275000000     0.132000000000    -0.695      
C        C      0.159900000000     0.532200000000     0.159266666667    -0.695      
C        C      0.060275000000     0.597025000000     0.009866666667    -0.695      
C        C      0.056275000000     0.614275000000     0.048666666667    -0.695      
C        C      0.032200000000     0.590100000000     0.075933333333    -0.695      
C        C      0.189725000000     0.652975000000     0.176533333333    -0.695      
C        C      0.193725000000     0.635725000000     0.215333333333    -0.695      
C        C      0.217800000000     0.659900000000     0.242600000000    -0.695      
C        C      0.097025000000     0.689725000000     0.593200000000    -0.695      
C        C      0.114275000000     0.693725000000     0.632000000000    -0.695      
C        C      0.090100000000     0.717800000000     0.659266666667    -0.695      
C        C      0.152975000000     0.560275000000     0.426533333333    -0.695      
C        C      0.135725000000     0.556275000000     0.465333333333    -0.695      
C        C      0.159900000000     0.532200000000     0.492600000000    -0.695      
C        C      0.060275000000     0.597025000000     0.343200000000    -0.695      
C        C      0.056275000000     0.614275000000     0.382000000000    -0.695      
C        C      0.032200000000     0.590100000000     0.409266666667    -0.695      
C        C      0.189725000000     0.652975000000     0.509866666667    -0.695      
C        C      0.193725000000     0.635725000000     0.548666666667    -0.695      
C        C      0.217800000000     0.659900000000     0.575933333333    -0.695      
C        C      0.097025000000     0.689725000000     0.926533333333    -0.695      
C        C      0.114275000000     0.693725000000     0.965333333333    -0.695      
C        C      0.090100000000     0.717800000000     0.992600000000    -0.695      
C        C      0.152975000000     0.560275000000     0.759866666667    -0.695      
C        C      0.135725000000     0.556275000000     0.798666666667    -0.695      
C        C      0.159900000000     0.532200000000     0.825933333333    -0.695      
C        C      0.060275000000     0.597025000000     0.676533333333    -0.695      
C        C      0.056275000000     0.614275000000     0.715333333333    -0.695      
C        C      0.032200000000     0.590100000000     0.742600000000    -0.695      
C        C      0.189725000000     0.652975000000     0.843200000000    -0.695      
C        C      0.193725000000     0.635725000000     0.882000000000    -0.695      
C        C      0.217800000000     0.659900000000     0.909266666667    -0.695      
C        C      0.097025000000     0.939725000000     0.259866666667    -0.695      
C        C      0.114275000000     0.943725000000     0.298666666667    -0.695      
C        C      0.090100000000     0.967800000000     0.325933333333    -0.695      
C        C      0.152975000000     0.810275000000     0.093200000000    -0.695      
C        C      0.135725000000     0.806275000000     0.132000000000    -0.695      
C        C      0.159900000000     0.782200000000     0.159266666667    -0.695      
C        C      0.060275000000     0.847025000000     0.009866666667    -0.695      
C        C      0.056275000000     0.864275000000     0.048666666667    -0.695      
C        C      0.032200000000     0.840100000000     0.075933333333    -0.695      
C        C      0.189725000000     0.902975000000     0.176533333333    -0.695      
C        C      0.193725000000     0.885725000000     0.215333333333    -0.695      
C        C      0.217800000000     0.909900000000     0.242600000000    -0.695      
C        C      0.097025000000     0.939725000000     0.593200000000    -0.695      
C        C      0.114275000000     0.943725000000     0.632000000000    -0.695      
C        C      0.090100000000     0.967800000000     0.659266666667    -0.695      
C        C      0.152975000000     0.810275000000     0.426533333333    -0.695      
C        C      0.135725000000     0.806275000000     0.465333333333    -0.695      
C        C      0.159900000000     0.782200000000     0.492600000000    -0.695      
C        C      0.060275000000     0.847025000000     0.343200000000    -0.695      
C        C      0.056275000000     0.864275000000     0.382000000000    -0.695      
C        C      0.032200000000     0.840100000000     0.409266666667    -0.695      
C        C      0.189725000000     0.902975000000     0.509866666667    -0.695      
C        C      0.193725000000     0.885725000000     0.548666666667    -0.695      
C        C      0.217800000000     0.909900000000     0.575933333333    -0.695      
C        C      0.097025000000     0.939725000000     0.926533333333    -0.695      
C        C      0.114275000000     0.943725000000     0.965333333333    -0.695      
C        C      0.090100000000     0.967800000000     0.992600000000    -0.695      
C        C      0.152975000000     0.810275000000     0.759866666667    -0.695      
C        C      0.135725000000     0.806275000000     0.798666666667    -0.695      
C        C      0.159900000000     0.782200000000     0.825933333333    -0.695      
C        C      0.060275000000     0.847025000000     0.676533333333    -0.695      
C        C      0.056275000000     0.864275000000     0.715333333333    -0.695      
C        C      0.032200000000     0.840100000000     0.742600000000    -0.695      
C        C      0.189725000000     0.902975000000     0.843200000000    -0.695      
C        C      0.193725000000     0.885725000000     0.882000000000    -0.695      
C        C      0.217800000000     0.909900000000     0.909266666667    -0.695      
C        C      0.347025000000     0.189725000000     0.259866666667    -0.695      
C        C      0.364275000000     0.193725000000     0.298666666667    -0.695      
C        C      0.340100000000     0.217800000000     0.325933333333    -0.695      
C        C      0.402975000000     0.060275000000     0.093200000000    -0.695      
C        C      0.385725000000     0.056275000000     0.132000000000    -0.695      
C        C      0.409900000000     0.032200000000     0.159266666667    -0.695      
C        C      0.310275000000     0.097025000000     0.009866666667    -0.695      
C        C      0.306275000000     0.114275000000     0.048666666667    -0.695      
C        C      0.282200000000     0.090100000000     0.075933333333    -0.695      
C        C      0.439725000000     0.152975000000     0.176533333333    -0.695      
C        C      0.443725000000     0.135725000000     0.215333333333    -0.695      
C        C      0.467800000000     0.159900000000     0.242600000000    -0.695      
C        C      0.347025000000     0.189725000000     0.593200000000    -0.695      
C        C      0.364275000000     0.193725000000     0.632000000000    -0.695      
C        C      0.340100000000     0.217800000000     0.659266666667    -0.695      
C        C      0.402975000000     0.060275000000     0.426533333333    -0.695      
C        C      0.385725000000     0.056275000000     0.465333333333    -0.695      
C        C      0.409900000000     0.032200000000     0.492600000000    -0.695      
C        C      0.310275000000     0.097025000000     0.343200000000    -0.695      
C        C      0.306275000000     0.114275000000     0.382000000000    -0.695      
C        C      0.282200000000     0.090100000000     0.409266666667    -0.695      
C        C      0.439725000000     0.152975000000     0.509866666667    -0.695      
C        C      0.443725000000     0.135725000000     0.548666666667    -0.695      
C        C      0.467800000000     0.159900000000     0.575933333333    -0.695      
C        C      0.347025000000     0.189725000000     0.926533333333    -0.695      
C        C      0.364275000000     0.193725000000     0.965333333333    -0.695      
C        C      0.340100000000     0.217800000000     0.992600000000    -0.695      
C        C      0.402975000000     0.060275000000     0.759866666667    -0.695      
C        C      0.385725000000     0.056275000000     0.798666666667    -0.695      
C        C      0.409900000000     0.032200000000     0.825933333333    -0.695      
C        C      0.310275000000     0.097025000000     0.676533333333    -0.695      
C        C      0.306275000000     0.114275000000     0.715333333333    -0.695      
C        C      0.282200000000     0.090100000000     0.742600000000    -0.695      
C        C      0.439725000000     0.152975000000     0.843200000000    -0.695      
C        C      0.443725000000     0.135725000000     0.882000000000    -0.695      
C        C      0.467800000000     0.159900000000     0.909266666667    -0.695      
C        C      0.347025000000     0.439725000000     0.259866666667    -0.695      
C        C      0.364275000000     0.443725000000     0.298666666667    -0.695      
C        C      0.340100000000     0.467800000000     0.325933333333    -0.695      
C        C      0.402975000000     0.310275000000     0.093200000000    -0.695      
C        C      0.385725000000     0.306275000000     0.132000000000    -0.695      
C        C      0.409900000000     0.282200000000     0.159266666667    -0.695      
C        C      0.310275000000     0.347025000000     0.009866666667    -0.695      
C        C      0.306275000000     0.364275000000     0.048666666667    -0.695      
C        C      0.282200000000     0.340100000000     0.075933333333    -0.695      
C        C      0.439725000000     0.402975000000     0.176533333333    -0.695      
C        C      0.443725000000     0.385725000000     0.215333333333    -0.695      
C        C      0.467800000000     0.409900000000     0.242600000000    -0.695      
C        C      0.347025000000     0.439725000000     0.593200000000    -0.695      
C        C      0.364275000000     0.443725000000     0.632000000000    -0.695      
C        C      0.340100000000     0.467800000000     0.659266666667    -0.695      
C        C      0.402975000000     0.310275000000     0.426533333333    -0.695      
C        C      0.385725000000     0.306275000000     0.465333333333    -0.695      
C        C      0.409900000000     0.282200000000     0.492600000000    -0.695      
C        C      0.310275000000     0.347025000000     0.343200000000    -0.695      
C        C      0.306275000000     0.364275000000     0.382000000000    -0.695      
C        C      0.282200000000     0.340100000000     0.409266666667    -0.695      
C        C      0.439725000000     0.402975000000     0.509866666667    -0.695      
C        C      0.443725000000     0.385725000000     0.548666666667    -0.695      
C        C      0.467800000000     0.409900000000     0.575933333333    -0.695      
C        C      0.347025000000     0.439725000000     0.926533333333    -0.695      
C        C      0.364275000000     0.443725000000     0.965333333333    -0.695      
C        C      0.340100000000     0.467800000000     0.992600000000    -0.695      
C        C      0.402975000000     0.310275000000     0.759866666667    -0.695      
C        C      0.385725000000     0.306275000000     0.798666666667    -0.695      
C        C      0.409900000000     0.282200000000     0.825933333333    -0.695      
C        C      0.310275000000     0.347025000000     0.676533333333    -0.695      
C        C      0.306275000000     0.364275000000     0.715333333333    -0.695      
C        C      0.282200000000     0.340100000000     0.742600000000    -0.695      
C        C      0.439725000000     0.402975000000     0.843200000000    -0.695      
C        C      0.443725000000     0.385725000000     0.882000000000    -0.695      
C        C      0.467800000000     0.409900000000     0.909266666667    -0.695      
C        C      0.347025000000     0.689725000000     0.259866666667    -0.695      
C        C      0.364275000000     0.693725000000     0.298666666667    -0.695      
C        C      0.340100000000     0.717800000000     0.325933333333    -0.695      
C        C      0.402975000000     0.560275000000     0.093200000000    -0.695      
C        C      0.385725000000     0.556275000000     0.132000000000    -0.695      
C        C      0.409900000000     0.532200000000     0.159266666667    -0.695      
C        C      0.310275000000     0.597025000000     0.009866666667    -0.695      
C        C      0.306275000000     0.614275000000     0.048666666667    -0.695      
C        C      0.282200000000     0.590100000000     0.075933333333    -0.695      
C        C      0.439725000000     0.652975000000     0.176533333333    -0.695      
C        C      0.443725000000     0.635725000000     0.215333333333    -0.695      
C        C      0.467800000000     0.659900000000     0.242600000000    -0.695      
C        C      0.347025000000     0.689725000000     0.593200000000    -0.695      
C        C      0.364275000000     0.693725000000     0.632000000000    -0.695      
C        C      0.340100000000     0.717800000000     0.659266666667    -0.695      
C        C      0.402975000000     0.560275000000     0.426533333333    -0.695      
C        C      0.385725000000     0.556275000000     0.465333333333    -0.695      
C        C      0.409900000000     0.532200000000     0.492600000000    -0.695      
C        C      0.310275000000     0.597025000000     0.343200000000    -0.695      
C        C      0.306275000000     0.614275000000     0.382000000000    -0.695      
C        C      0.282200000000     0.590100000000     0.409266666667    -0.695      
C        C      0.439725000000     0.652975000000     0.509866666667    -0.695      
C        C      0.443725000000     0.635725000000     0.548666666667    -0.695      
C        C      0.467800000000     0.659900000000     0.575933333333    -0.695      
C        C      0.347025000000     0.689725000000     0.926533333333    -0.695      
C        C      0.364275000000     0.693725000000     0.965333333333    -0.695      
C        C      0.340100000000     0.717800000000     0.992600000000    -0.695      
C        C      0.402975000000     0.560275000000     0.759866666667    -0.695      
C        C      0.385725000000     0.556275000000     0.798666666667    -0.695      
C        C      0.409900000000     0.532200000000     0.825933333333    -0.695      
C        C      0.310275000000     0.597025000000     0.676533333333    -0.695      
C        C      0.306275000000     0.614275000000     0.715333333333    -0.695      
C        C      0.282200000000     0.590100000000     0.742600000000    -0.695      
C        C      0.439725000000     0.652975000000     0.843200000000    -0.695      
C        C      0.443725000000     0.635725000000     0.882000000000    -0.695      
C        C      0.467800000000     0.659900000000     0.909266666667    -0.695      
C        C      0.347025000000     0.939725000000     0.259866666667    -0.695      
C        C      0.364275000000     0.943725000000     0.298666666667    -0.695      
C        C      0.340100000000     0.967800000000     0.325933333333    -0.695      
C        C      0.402975000000     0.810275000000     0.093200000000    -0.695      
C        C      0.385725000000     0.806275000000     0.132000000000    -0.695      
C        C      0.409900000000     0.782200000000     0.159266666667    -0.695      
C        C      0.310275000000     0.847025000000     0.009866666667    -0.695      
C        C      0.306275000000     0.864275000000     0.048666666667    -0.695      
C        C      0.282200000000     0.840100000000     0.075933333333    -0.695      
C        C      0.439725000000     0.902975000000     0.176533333333    -0.695      
C        C      0.443725000000     0.885725000000     0.215333333333    -0.695      
C        C      0.467800000000     0.909900000000     0.242600000000    -0.695      
C        C      0.347025000000     0.939725000000     0.593200000000    -0.695      
C        C      0.364275000000     0.943725000000     0.632000000000    -0.695      
C        C      0.340100000000     0.967800000000     0.659266666667    -0.695      
C        C      0.402975000000     0.810275000000     0.426533333333    -0.695      
C        C      0.385725000000     0.806275000000     0.465333333333    -0.695      
C        C      0.409900000000     0.782200000000     0.492600000000    -0.695      
C        C      0.310275000000     0.847025000000     0.343200000000    -0.695      
C        C      0.306275000000     0.864275000000     0.382000000000    -0.695      
C        C      0.282200000000     0.840100000000     0.409266666667    -0.695      
C        C      0.439725000000     0.902975000000     0.509866666667    -0.695      
C        C      0.443725000000     0.885725000000     0.548666666667    -0.695      
C        C      0.467800000000     0.909900000000     0.575933333333    -0.695      
C        C      0.347025000000     0.939725000000     0.926533333333    -0.695      
C        C      0.364275000000     0.943725000000     0.965333333333    -0.695      
C        C      0.340100000000     0.967800000000     0.992600000000    -0.695      
C        C      0.402975000000     0.810275000000     0.759866666667    -0.695      
C        C      0.385725000000     0.806275000000     0.798666666667    -0.695      
C        C      0.409900000000     0.782200000000     0.825933333333    -0.695      
C        C      0.310275000000     0.847025000000     0.676533333333    -0.695      
C        C      0.306275000000     0.864275000000     0.715333333333    -0.695      
C        C      0.282200000000     0.840100000000     0.742600000000    -0.695      
C        C      0.439725000000     0.902975000000     0.843200000000    -0.695      
C        C      0.443725000000     0.885725000000     0.882000000000    -0.695      
C        C      0.467800000000     0.909900000000     0.909266666667    -0.695      
C        C      0.597025000000     0.189725000000     0.259866666667    -0.695      
C        C      0.614275000000     0.193725000000     0.298666666667    -0.695      
C        C      0.590100000000     0.217800000000     0.325933333333    -0.695      
C        C      0.652975000000     0.060275000000     0.093200000000    -0.695      
C        C      0.635725000000     0.056275000000     0.132000000000    -0.695      
C        C      0.659900000000     0.032200000000     0.159266666667    -0.695      
C        C      0.560275000000     0.097025000000     0.009866666667    -0.695      
C        C      0.556275000000     0.114275000000     0.048666666667    -0.695      
C        C      0.532200000000     0.090100000000     0.075933333333    -0.695      
C        C      0.689725000000     0.152975000000     0.176533333333    -0.695      
C        C      0.693725000000     0.135725000000     0.215333333333    -0.695      
C        C      0.717800000000     0.159900000000     0.242600000000    -0.695      
C        C      0.597025000000     0.189725000000     0.593200000000    -0.695      
C        C      0.614275000000     0.193725000000     0.632000000000    -0.695      
C        C      0.590100000000     0.217800000000     0.659266666667    -0.695      
C        C      0.652975000000     0.060275000000     0.426533333333    -0.695      
C        C      0.635725000000     0.056275000000     0.465333333333    -0.695      
C        C      0.659900000000     0.032200000000     0.492600000000    -0.695      
C        C      0.560275000000     0.097025000000     0.343200000000    -0.695      
C        C      0.556275000000     0.114275000000     0.382000000000    -0.695      
C        C      0.532200000000     0.090100000000     0.409266666667    -0.695      
C        C      0.689725000000     0.152975000000     0.509866666667    -0.695      
C        C      0.693725000000     0.135725000000     0.548666666667    -0.695      
C        C      0.717800000000     0.159900000000     0.575933333333    -0.695      
C        C      0.597025000000     0.189725000000     0.926533333333    -0.695      
C        C      0.614275000000     0.193725000000     0.965333333333    -0.695      
C        C      0.590100000000     0.217800000000     0.992600000000    -0.695      
C        C      0.652975000000     0.060275000000     0.759866666667    -0.695      
C        C      0.635725000000     0.056275000000     0.798666666667    -0.695      
C        C      0.659900000000     0.032200000000     0.825933333333    -0.695      
C        C      0.560275000000     0.097025000000     0.676533333333    -0.695      
C        C      0.556275000000     0.114275000000     0.715333333333    -0.695      
C        C      0.532200000000     0.090100000000     0.742600000000    -0.695      
C        C      0.689725000000     0.152975000000     0.843200000000    -0.695      
C        C      0.693725000000     0.135725000000     0.882000000000    -0.695      
C        C      0.717800000000     0.159900000000     0.909266666667    -0.695      
C        C      0.597025000000     0.439725000000     0.259866666667    -0.695      
C        C      0.614275000000     0.443725000000     0.298666666667    -0.695      
C        C      0.590100000000     0.467800000000     0.325933333333    -0.695      
C        C      0.652975000000     0.310275000000     0.093200000000    -0.695      
C        C      0.635725000000     0.306275000000     0.132000000000    -0.695      
C        C      0.659900000000     0.282200000000     0.159266666667    -0.695      
C        C      0.560275000000     0.347025000000     0.009866666667    -0.695      
C        C      0.556275000000     0.364275000000     0.048666666667    -0.695      
C        C      0.532200000000     0.340100000000     0.075933333333    -0.695      
C        C      0.689725000000     0.402975000000     0.176533333333    -0.695      
C        C      0.693725000000     0.385725000000     0.215333333333    -0.695      
C        C      0.717800000000     0.409900000000     0.242600000000    -0.695      
C        C      0.597025000000     0.439725000000     0.593200000000    -0.695      
C        C      0.614275000000     0.443725000000     0.632000000000    -0.695      
C        C      0.590100000000     0.467800000000     0.659266666667    -0.695      
C        C      0.652975000000     0.310275000000     0.426533333333    -0.695      
C        C      0.635725000000     0.306275000000     0.465333333333    -0.695      
C        C      0.659900000000     0.282200000000     0.492600000000    -0.695      
C        C      0.560275000000     0.347025000000     0.343200000000    -0.695      
C        C      0.556275000000     0.364275000000     0.382000000000    -0.695      
C        C      0.532200000000     0.340100000000     0.409266666667    -0.695      
C        C      0.689725000000     0.402975000000     0.509866666667    -0.695      
C        C      0.693725000000     0.385725000000     0.548666666667    -0.695      
C        C      0.717800000000     0.409900000000     0.575933333333    -0.695      
C        C      0.597025000000     0.439725000000     0.926533333333    -0.695      
C        C      0.614275000000     0.443725000000     0.965333333333    -0.695      
C        C      0.590100000000     0.467800000000     0.992600000000    -0.695      
C        C      0.652975000000     0.310275000000     0.759866666667    -0.695      
C        C      0.635725000000     0.306275000000     0.798666666667    -0.695      
C        C      0.659900000000     0.282200000000     0.825933333333    -0.695      
C        C      0.560275000000     0.347025000000     0.676533333333    -0.695      
C        C      0.556275000000     0.364275000000     0.715333333333    -0.695      
C        C      0.532200000000     0.340100000000     0.742600000000    -0.695      
C        C      0.689725000000     0.402975000000     0.843200000000    -0.695      
C        C      0.693725000000     0.385725000000     0.882000000000    -0.695      
C        C      0.717800000000     0.409900000000     0.909266666667    -0.695      
C        C      0.597025000000     0.689725000000     0.259866666667    -0.695      
C        C      0.614275000000     0.693725000000     0.298666666667    -0.695      
C        C      0.590100000000     0.717800000000     0.325933333333    -0.695      
C        C      0.652975000000     0.560275000000     0.093200000000    -0.695      
C        C      0.635725000000     0.556275000000     0.132000000000    -0.695      
C        C      0.659900000000     0.532200000000     0.159266666667    -0.695      
C        C      0.560275000000     0.597025000000     0.009866666667    -0.695      
C        C      0.556275000000     0.614275000000     0.048666666667    -0.695      
C        C      0.532200000000     0.590100000000     0.075933333333    -0.695      
C        C      0.689725000000     0.652975000000     0.176533333333    -0.695      
C        C      0.693725000000     0.635725000000     0.215333333333    -0.695      
C        C      0.717800000000     0.659900000000     0.242600000000    -0.695      
C        C      0.597025000000     0.689725000000     0.593200000000    -0.695      
C        C      0.614275000000     0.693725000000     0.632000000000    -0.695      
C        C      0.590100000000     0.717800000000     0.659266666667    -0.695      
C        C      0.652975000000     0.560275000000     0.426533333333    -0.695      
C        C      0.635725000000     0.556275000000     0.465333333333    -0.695      
C        C      0.659900000000     0.532200000000     0.492600000000    -0.695      
C        C      0.560275000000     0.597025000000     0.343200000000    -0.695      
C        C      0.556275000000     0.614275000000     0.382000000000    -0.695      
C        C      0.532200000000     0.590100000000     0.409266666667    -0.695      
C        C      0.689725000000     0.652975000000     0.509866666667    -0.695      
C        C      0.693725000000     0.635725000000     0.548666666667    -0.695      
C        C      0.717800000000     0.659900000000     0.575933333333    -0.695      
C        C      0.597025000000     0.689725000000     0.926533333333    -0.695      
C        C      0.614275000000     0.693725000000     0.965333333333    -0.695      
C        C      0.590100000000     0.717800000000     0.992600000000    -0.695      
C        C      0.652975000000     0.560275000000     0.759866666667    -0.695      
C        C      0.635725000000     0.556275000000     0.798666666667    -0.695      
C        C      0.659900000000     0.532200000000     0.825933333333    -0.695      
C        C      0.560275000000     0.597025000000     0.676533333333    -0.695      
C        C      0.556275000000     0.614275000000     0.715333333333    -0.695      
C        C      0.532200000000     0.590100000000     0.742600000000    -0.695      
C        C      0.689725000000     0.652975000000     0.843200000000    -0.695      
C        C      0.693725000000     0.635725000000     0.882000000000    -0.695      
C        C      0.717800000000     0.659900000000     0.909266666667    -0.695      
C        C      0.597025000000     0.939725000000     0.259866666667    -0.695      
C        C      0.614275000000     0.943725000000     0.298666666667    -0.695      
C        C      0.590100000000     0.967800000000     0.325933333333    -0.695      
C        C      0.652975000000     0.810275000000     0.093200000000    -0.695      
C        C      0.635725000000     0.806275000000     0.132000000000    -0.695      
C        C      0.659900000000     0.782200000000     0.159266666667    -0.695      
C        C      0.560275000000     0.847025000000     0.009866666667    -0.695      
C        C      0.556275000000     0.864275000000     0.048666666667    -0.695      
C        C      0.532200000000     0.840100000000     0.075933333333    -0.695      
C        C      0.689725000000     0.902975000000     0.176533333333    -0.695      
C        C      0.693725000000     0.885725000000     0.215333333333    -0.695      
C        C      0.717800000000     0.909900000000     0.242600000000    -0.695      
C        C      0.597025000000     0.939725000000     0.593200000000    -0.695      
C        C      0.614275000000     0.943725000000     0.632000000000    -0.695      
C        C      0.590100000000     0.967800000000     0.659266666667    -0.695      
C        C      0.652975000000     0.810275000000     0.426533333333    -0.695      
C        C      0.635725000000     0.806275000000     0.465333333333    -0.695      
C        C      0.659900000000     0.782200000000     0.492600000000    -0.695      
C        C      0.560275000000     0.847025000000     0.343200000000    -0.695      
C        C      0.556275000000     0.864275000000     0.382000000000    -0.695      
C        C      0.532200000000     0.840100000000     0.409266666667    -0.695      
C        C      0.689725000000     0.902975000000     0.509866666667    -0.695      
C        C      0.693725000000     0.885725000000     0.548666666667    -0.695      
C        C      0.717800000000     0.909900000000     0.575933333333    -0.695      
C        C      0.597025000000     0.939725000000     0.926533333333    -0.695      
C        C      0.614275000000     0.943725000000     0.965333333333    -0.695      
C        C      0.590100000000     0.967800000000     0.992600000000    -0.695      
C        C      0.652975000000     0.810275000000     0.759866666667    -0.695      
C        C      0.635725000000     0.806275000000     0.798666666667    -0.695      
C        C      0.659900000000     0.782200000000     0.825933333333    -0.695      
C        C      0.560275000000     0.847025000000     0.676533333333    -0.695      
C        C      0.556275000000     0.864275000000     0.715333333333    -0.695      
C        C      0.532200000000     0.840100000000     0.742600000000    -0.695      
C        C      0.689725000000     0.902975000000     0.843200000000    -0.695      
C        C      0.693725000000     0.885725000000     0.882000000000    -0.695      
C        C      0.717800000000     0.909900000000     0.909266666667    -0.695      
C        C      0.847025000000     0.189725000000     0.259866666667    -0.695      
C        C      0.864275000000     0.193725000000     0.298666666667    -0.695      
C        C      0.840100000000     0.217800000000     0.325933333333    -0.695      
C        C      0.902975000000     0.060275000000     0.093200000000    -0.695      
C        C      0.885725000000     0.056275000000     0.132000000000    -0.695      
C        C      0.909900000000     0.032200000000     0.159266666667    -0.695      
C        C      0.810275000000     0.097025000000     0.009866666667    -0.695      
C        C      0.806275000000     0.114275000000     0.048666666667    -0.695      
C        C      0.782200000000     0.090100000000     0.075933333333    -0.695      
C        C      0.939725000000     0.152975000000     0.176533333333    -0.695      
C        C      0.943725000000     0.135725000000     0.215333333333    -0.695      
C        C      0.967800000000     0.159900000000     0.242600000000    -0.695      
C        C      0.847025000000     0.189725000000     0.593200000000    -0.695      
C        C      0.864275000000     0.193725000000     0.632000000000    -0.695      
C        C      0.840100000000     0.217800000000     0.659266666667    -0.695      
C        C      0.902975000000     0.060275000000     0.426533333333    -0.695      
C        C      0.885725000000     0.056275000000     0.465333333333    -0.695      
C        C      0.909900000000     0.032200000000     0.492600000000    -0.695      
C        C      0.810275000000     0.097025000000     0.343200000000    -0.695      
C        C      0.806275000000     0.114275000000     0.382000000000    -0.695      
C        C      0.782200000000     0.090100000000     0.409266666667    -0.695      
C        C      0.939725000000     0.152975000000     0.509866666667    -0.695      
C        C      0.943725000000     0.135725000000     0.548666666667    -0.695      
C        C      0.967800000000     0.159900000000     0.575933333333    -0.695      
C        C      0.847025000000     0.189725000000     0.926533333333    -0.695      
C        C      0.864275000000     0.193725000000     0.965333333333    -0.695      
C        C      0.840100000000     0.217800000000     0.992600000000    -0.695      
C        C      0.902975000000     0.060275000000     0.759866666667    -0.695      
C        C      0.885725000000     0.056275000000     0.798666666667    -0.695      
C        C      0.909900000000     0.032200000000     0.825933333333    -0.695      
C        C      0.810275000000     0.097025000000     0.676533333333    -0.695      
C        C      0.806275000000     0.114275000000     0.715333333333    -0.695      
C        C      0.782200000000     0.090100000000     0.742600000000    -0.695      
C        C      0.939725000000     0.152975000000     0.843200000000    -0.695      
C        C      0.943725000000     0.135725000000     0.882000000000    -0.695      
C        C      0.967800000000     0.159900000000     0.909266666667    -0.695      
C        C      0.847025000000     0.439725000000     0.259866666667    -0.695      
C        C      0.864275000000     0.443725000000     0.298666666667    -0.695      
C        C      0.840100000000     0.467800000000     0.325933333333    -0.695      
C        C      0.902975000000     0.310275000000     0.093200000000    -0.695      
C        C      0.885725000000     0.306275000000     0.132000000000    -0.695      
C        C      0.909900000000     0.282200000000     0.159266666667    -0.695      
C        C      0.810275000000     0.347025000000     0.009866666667    -0.695      
C        C      0.806275000000     0.364275000000     0.048666666667    -0.695      
C        C      0.782200000000     0.340100000000     0.075933333333    -0.695      
C        C      0.939725000000     0.402975000000     0.176533333333    -0.695      
C        C      0.943725000000     0.385725000000     0.215333333333    -0.695      
C        C      0.967800000000     0.409900000000     0.242600000000    -0.695      
C        C      0.847025000000     0.439725000000     0.593200000000    -0.695      
C        C      0.864275000000     0.443725000000     0.632000000000    -0.695      
C        C      0.840100000000     0.467800000000     0.659266666667    -0.695      
C        C      0.902975000000     0.310275000000     0.426533333333    -0.695      
C        C      0.885725000000     0.306275000000     0.465333333333    -0.695      
C        C      0.909900000000     0.282200000000     0.492600000000    -0.695      
C        C      0.810275000000     0.347025000000     0.343200000000    -0.695      
C        C      0.806275000000     0.364275000000     0.382000000000    -0.695      
C        C      0.782200000000     0.340100000000     0.409266666667    -0.695      
C        C      0.939725000000     0.402975000000     0.509866666667    -0.695      
C        C      0.943725000000     0.385725000000     0.548666666667    -0.695      
C        C      0.967800000000     0.409900000000     0.575933333333    -0.695      
C        C      0.847025000000     0.439725000000     0.926533333333    -0.695      
C        C      0.864275000000     0.443725000000     0.965333333333    -0.695      
C        C      0.840100000000     0.467800000000     0.992600000000    -0.695      
C        C      0.902975000000     0.310275000000     0.759866666667    -0.695      
C        C      0.885725000000     0.306275000000     0.798666666667    -0.695      
C        C      0.909900000000     0.282200000000     0.825933333333    -0.695      
C        C      0.810275000000     0.347025000000     0.676533333333    -0.695      
C        C      0.806275000000     0.364275000000     0.715333333333    -0.695      
C        C      0.782200000000     0.340100000000     0.742600000000    -0.695      
C        C      0.939725000000     0.402975000000     0.843200000000    -0.695      
C        C      0.943725000000     0.385725000000     0.882000000000    -0.695      
C        C      0.967800000000     0.409900000000     0.909266666667    -0.695      
C        C      0.847025000000     0.689725000000     0.259866666667    -0.695      
C        C      0.864275000000     0.693725000000     0.298666666667    -0.695      
C        C      0.840100000000     0.717800000000     0.325933333333    -0.695      
C        C      0.902975000000     0.560275000000     0.093200000000    -0.695      
C        C      0.885725000000     0.556275000000     0.132000000000    -0.695      
C        C      0.909900000000     0.532200000000     0.159266666667    -0.695      
C        C      0.810275000000     0.597025000000     0.009866666667    -0.695      
C        C      0.806275000000     0.614275000000     0.048666666667    -0.695      
C        C      0.782200000000     0.590100000000     0.075933333333    -0.695      
C        C      0.939725000000     0.652975000000     0.176533333333    -0.695      
C        C      0.943725000000     0.635725000000     0.215333333333    -0.695      
C        C      0.967800000000     0.659900000000     0.242600000000    -0.695      
C        C      0.847025000000     0.689725000000     0.593200000000    -0.695      
C        C      0.864275000000     0.693725000000     0.632000000000    -0.695      
C        C      0.840100000000     0.717800000000     0.659266666667    -0.695      
C        C      0.902975000000     0.560275000000     0.426533333333    -0.695      
C        C      0.885725000000     0.556275000000     0.465333333333    -0.695      
C        C      0.909900000000     0.532200000000     0.492600000000    -0.695      
C        C      0.810275000000     0.597025000000     0.343200000000    -0.695      
C        C      0.806275000000     0.614275000000     0.382000000000    -0.695      
C        C      0.782200000000     0.590100000000     0.409266666667    -0.695      
C        C      0.939725000000     0.652975000000     0.509866666667    -0.695      
C        C      0.943725000000     0.635725000000     0.548666666667    -0.695      
C        C      0.967800000000     0.659900000000     0.575933333333    -0.695      
C        C      0.847025000000     0.689725000000     0.926533333333    -0.695      
C        C      0.864275000000     0.693725000000     0.965333333333    -0.695      
C        C      0.840100000000     0.717800000000     0.992600000000    -0.695      
C        C      0.902975000000     0.560275000000     0.759866666667    -0.695      
C        C      0.885725000000     0.556275000000     0.798666666667    -0.695      
C        C      0.909900000000     0.532200000000     0.825933333333    -0.695      
C        C      0.810275000000     0.597025000000     0.676533333333    -0.695      
C        C      0.806275000000     0.614275000000     0.715333333333    -0.695      
C        C      0.782200000000     0.590100000000     0.742600000000    -0.695      
C        C      0.939725000000     0.652975000000     0.843200000000    -0.695      
C        C      0.943725000000     0.635725000000     0.882000000000    -0.695      
C        C      0.967800000000     0.659900000000     0.909266666667    -0.695      
C        C      0.847025000000     0.939725000000     0.259866666667    -0.695      
C        C      0.864275000000     0.943725000000     0.298666666667    -0.695      
C        C      0.840100000000     0.967800000000     0.325933333333    -0.695      
C        C      0.902975000000     0.810275000000     0.093200000000    -0.695      
C        C      0.885725000000     0.806275000000     0.132000000000    -0.695      
C        C      0.909900000000     0.782200000000     0.159266666667    -0.695      
C        C      0.810275000000     0.847025000000     0.009866666667    -0.695      
C        C      0.806275000000     0.864275000000     0.048666666667    -0.695      
C        C      0.782200000000     0.840100000000     0.075933333333    -0.695      
C        C      0.939725000000     0.902975000000     0.176533333333    -0.695      
C        C      0.943725000000     0.885725000000     0.215333333333    -0.695      
C        C      0.967800000000     0.909900000000     0.242600000000    -0.695      
C        C      0.847025000000     0.939725000000     0.593200000000    -0.695      
C        C      0.864275000000     0.943725000000     0.632000000000    -0.695      
C        C      0.840100000000     0.967800000000     0.659266666667    -0.695      
C        C      0.902975000000     0.810275000000     0.426533333333    -0.695      
C        C      0.885725000000     0.806275000000     0.465333333333    -0.695      
C        C      0.909900000000     0.782200000000     0.492600000000    -0.695      
C        C      0.810275000000     0.847025000000     0.343200000000    -0.695      
C        C      0.806275000000     0.864275000000     0.382000000000    -0.695      
C        C      0.782200000000     0.840100000000     0.409266666667    -0.695      
C        C      0.939725000000     0.902975000000     0.509866666667    -0.695      
C        C      0.943725000000     0.885725000000     0.548666666667    -0.695      
C        C      0.967800000000     0.909900000000     0.575933333333    -0.695      
C        C      0.847025000000     0.939725000000     0.926533333333    -0.695      
C        C      0.864275000000     0.943725000000     0.965333333333    -0.695      
C        C      0.840100000000     0.967800000000     0.992600000000    -0.695      
C        C      0.902975000000     0.810275000000     0.759866666667    -0.695      
C        C      0.885725000000     0.806275000000     0.798666666667    -0.695      
C        C      0.909900000000     0.782200000000     0.825933333333    -0.695      
C        C      0.810275000000     0.847025000000     0.676533333333    -0.695      
C        C      0.806275000000     0.864275000000     0.715333333333    -0.695      
C        C      0.782200000000     0.840100000000     0.742600000000    -0.695      
C        C      0.939725000000     0.902975000000     0.843200000000    -0.695      
C        C      0.943725000000     0.885725000000     0.882000000000    -0.695      
C        C      0.967800000000     0.909900000000     0.909266666667    -0.695      
Cu       Cu     0.024362500000     0.173522500000     0.297023333333     0.528      
Cu       Cu     0.225637500000     0.076477500000     0.130356666667     0.528      
Cu       Cu     0.076477500000     0.024362500000     0.047023333333     0.528      
Cu       Cu     0.173522500000     0.225637500000     0.213690000000     0.528      
Cu       Cu     0.024362500000     0.173522500000     0.630356666667     0.528      
Cu       Cu     0.225637500000     0.076477500000     0.463690000000     0.528      
Cu       Cu     0.076477500000     0.024362500000     0.380356666667     0.528      
Cu       Cu     0.173522500000     0.225637500000     0.547023333333     0.528      
Cu       Cu     0.024362500000     0.173522500000     0.963690000000     0.528      
Cu       Cu     0.225637500000     0.076477500000     0.797023333333     0.528      
Cu       Cu     0.076477500000     0.024362500000     0.713690000000     0.528      
Cu       Cu     0.173522500000     0.225637500000     0.880356666667     0.528      
Cu       Cu     0.024362500000     0.423522500000     0.297023333333     0.528      
Cu       Cu     0.225637500000     0.326477500000     0.130356666667     0.528      
Cu       Cu     0.076477500000     0.274362500000     0.047023333333     0.528      
Cu       Cu     0.173522500000     0.475637500000     0.213690000000     0.528      
Cu       Cu     0.024362500000     0.423522500000     0.630356666667     0.528      
Cu       Cu     0.225637500000     0.326477500000     0.463690000000     0.528      
Cu       Cu     0.076477500000     0.274362500000     0.380356666667     0.528      
Cu       Cu     0.173522500000     0.475637500000     0.547023333333     0.528      
Cu       Cu     0.024362500000     0.423522500000     0.963690000000     0.528      
Cu       Cu     0.225637500000     0.326477500000     0.797023333333     0.528      
Cu       Cu     0.076477500000     0.274362500000     0.713690000000     0.528      
Cu       Cu     0.173522500000     0.475637500000     0.880356666667     0.528      
Cu       Cu     0.024362500000     0.673522500000     0.297023333333     0.528      
Cu       Cu     0.225637500000     0.576477500000     0.130356666667     0.528      
Cu       Cu     0.076477500000     0.524362500000     0.047023333333     0.528      
Cu       Cu     0.173522500000     0.725637500000     0.213690000000     0.528      
Cu       Cu     0.024362500000     0.673522500000     0.630356666667     0.528      
Cu       Cu     0.225637500000     0.576477500000     0.463690000000     0.528      
Cu       Cu     0.076477500000     0.524362500000     0.380356666667     0.528      
Cu       Cu     0.173522500000     0.725637500000     0.547023333333     0.528      
Cu       Cu     0.024362500000     0.673522500000     0.963690000000     0.528      
Cu       Cu     0.225637500000     0.576477500000     0.797023333333     0.528      
Cu       Cu     0.076477500000     0.524362500000     0.713690000000     0.528      
Cu       Cu     0.173522500000     0.725637500000     0.880356666667     0.528      
Cu       Cu     0.024362500000     0.923522500000     0.297023333333     0.528      
Cu       Cu     0.225637500000     0.826477500000     0.130356666667     0.528      
Cu       Cu     0.076477500000     0.774362500000     0.047023333333     0.528      
Cu       Cu     0.173522500000     0.975637500000     0.213690000000     0.528      
Cu       Cu     0.024362500000     0.923522500000     0.630356666667     0.528      
Cu       Cu     0.225637500000     0.826477500000     0.463690000000     0.528      
Cu       Cu     0.076477500000     0.774362500000     0.380356666667     0.528      
Cu       Cu     0.173522500000     0.975637500000     0.547023333333     0.528      
Cu       Cu     0.024362500000     0.923522500000     0.963690000000     0.528      
Cu       Cu     0.225637500000     0.826477500000     0.797023333333     0.528      
Cu       Cu     0.076477500000     0.774362500000     0.713690000000     0.528      
Cu       Cu     0.173522500000     0.975637500000     0.880356666667     0.528      
Cu       Cu     0.274362500000     0.173522500000     0.297023333333     0.528      
Cu       Cu     0.475637500000     0.076477500000     0.130356666667     0.528      
Cu       Cu     0.326477500000     0.024362500000     0.047023333333     0.528      
Cu       Cu     0.423522500000     0.225637500000     0.213690000000     0.528      
Cu       Cu     0.274362500000     0.173522500000     0.630356666667     0.528      
Cu       Cu     0.475637500000     0.076477500000     0.463690000000     0.528      
Cu       Cu     0.326477500000     0.024362500000     0.380356666667     0.528      
Cu       Cu     0.423522500000     0.225637500000     0.547023333333     0.528      
Cu       Cu     0.274362500000     0.173522500000     0.963690000000     0.528      
Cu       Cu     0.475637500000     0.076477500000     0.797023333333     0.528      
Cu       Cu     0.326477500000     0.024362500000     0.713690000000     0.528      
Cu       Cu     0.423522500000     0.225637500000     0.880356666667     0.528      
Cu       Cu     0.274362500000     0.423522500000     0.297023333333     0.528      
Cu       Cu     0.475637500000     0.326477500000     0.130356666667     0.528      
Cu       Cu     0.326477500000     0.274362500000     0.047023333333     0.528      
Cu       Cu     0.423522500000     0.475637500000     0.213690000000     0.528      
Cu       Cu     0.274362500000     0.423522500000     0.630356666667     0.528      
Cu       Cu     0.475637500000     0.326477500000     0.463690000000     0.528      
Cu       Cu     0.326477500000     0.274362500000     0.380356666667     0.528      
Cu       Cu     0.423522500000     0.475637500000     0.547023333333     0.528      
Cu       Cu     0.274362500000     0.423522500000     0.963690000000     0.528      
Cu       Cu     0.475637500000     0.326477500000     0.797023333333     0.528      
Cu       Cu     0.326477500000     0.274362500000     0.713690000000     0.528      
Cu       Cu     0.423522500000     0.475637500000     0.880356666667     0.528      
Cu       Cu     0.274362500000     0.673522500000     0.297023333333     0.528      
Cu       Cu     0.475637500000     0.576477500000     0.130356666667     0.528      
Cu       Cu     0.326477500000     0.524362500000     0.047023333333     0.528      
Cu       Cu     0.423522500000     0.725637500000     0.213690000000     0.528      
Cu       Cu     0.274362500000     0.673522500000     0.630356666667     0.528      
Cu       Cu     0.475637500000     0.576477500000     0.463690000000     0.528      
Cu       Cu     0.326477500000     0.524362500000     0.380356666667     0.528      
Cu       Cu     0.423522500000     0.725637500000     0.547023333333     0.528      
Cu       Cu     0.274362500000     0.673522500000     0.963690000000     0.528      
Cu       Cu     0.475637500000     0.576477500000     0.797023333333     0.528      
Cu       Cu     0.326477500000     0.524362500000     0.713690000000     0.528      
Cu       Cu     0.423522500000     0.725637500000     0.880356666667     0.528      
Cu       Cu     0.274362500000     0.923522500000     0.297023333333     0.528      
Cu       Cu     0.475637500000     0.826477500000     0.130356666667     0.528      
Cu       Cu     0.326477500000     0.774362500000     0.047023333333     0.528      
Cu       Cu     0.423522500000     0.975637500000     0.213690000000     0.528      
Cu       Cu     0.274362500000     0.923522500000     0.630356666667     0.528      
Cu       Cu     0.475637500000     0.826477500000     0.463690000000     0.528      
Cu       Cu     0.326477500000     0.774362500000     0.380356666667     0.528      
Cu       Cu     0.423522500000     0.975637500000     0.547023333333     0.528      
Cu       Cu     0.274362500000     0.923522500000     0.963690000000     0.528      
Cu       Cu     0.475637500000     0.826477500000     0.797023333333     0.528      
Cu       Cu     0.326477500000     0.774362500000     0.713690000000     0.528      
Cu       Cu     0.423522500000     0.975637500000     0.880356666667     0.528      
Cu       Cu     0.524362500000     0.173522500000     0.297023333333     0.528      
Cu       Cu     0.725637500000     0.076477500000     0.130356666667     0.528      
Cu       Cu     0.576477500000     0.024362500000     0.047023333333     0.528      
Cu       Cu     0.673522500000     0.225637500000     0.213690000000     0.528      
Cu       Cu     0.524362500000     0.173522500000     0.630356666667     0.528      
Cu       Cu     0.725637500000     0.076477500000     0.463690000000     0.528      
Cu       Cu     0.576477500000     0.024362500000     0.380356666667     0.528      
Cu       Cu     0.673522500000     0.225637500000     0.547023333333     0.528      
Cu       Cu     0.524362500000     0.173522500000     0.963690000000     0.528      
Cu       Cu     0.725637500000     0.076477500000     0.797023333333     0.528      
Cu       Cu     0.576477500000     0.024362500000     0.713690000000     0.528      
Cu       Cu     0.673522500000     0.225637500000     0.880356666667     0.528      
Cu       Cu     0.524362500000     0.423522500000     0.297023333333     0.528      
Cu       Cu     0.725637500000     0.326477500000     0.130356666667     0.528      
Cu       Cu     0.576477500000     0.274362500000     0.047023333333     0.528      
Cu       Cu     0.673522500000     0.475637500000     0.213690000000     0.528      
Cu       Cu     0.524362500000     0.423522500000     0.630356666667     0.528      
Cu       Cu     0.725637500000     0.326477500000     0.463690000000     0.528      
Cu       Cu     0.576477500000     0.274362500000     0.380356666667     0.528      
Cu       Cu     0.673522500000     0.475637500000     0.547023333333     0.528      
Cu       Cu     0.524362500000     0.423522500000     0.963690000000     0.528      
Cu       Cu     0.725637500000     0.326477500000     0.797023333333     0.528      
Cu       Cu     0.576477500000     0.274362500000     0.713690000000     0.528      
Cu       Cu     0.673522500000     0.475637500000     0.880356666667     0.528      
Cu       Cu     0.524362500000     0.673522500000     0.297023333333     0.528      
Cu       Cu     0.725637500000     0.576477500000     0.130356666667     0.528      
Cu       Cu     0.576477500000     0.524362500000     0.047023333333     0.528      
Cu       Cu     0.673522500000     0.725637500000     0.213690000000     0.528      
Cu       Cu     0.524362500000     0.673522500000     0.630356666667     0.528      
Cu       Cu     0.725637500000     0.576477500000     0.463690000000     0.528      
Cu       Cu     0.576477500000     0.524362500000     0.380356666667     0.528      
Cu       Cu     0.673522500000     0.725637500000     0.547023333333     0.528      
Cu       Cu     0.524362500000     0.673522500000     0.963690000000     0.528      
Cu       Cu     0.725637500000     0.576477500000     0.797023333333     0.528      
Cu       Cu     0.576477500000     0.524362500000     0.713690000000     0.528      
Cu       Cu     0.673522500000     0.725637500000     0.880356666667     0.528      
Cu       Cu     0.524362500000     0.923522500000     0.297023333333     0.528      
Cu       Cu     0.725637500000     0.826477500000     0.130356666667     0.528      
Cu       Cu     0.576477500000     0.774362500000     0.047023333333     0.528      
Cu       Cu     0.673522500000     0.975637500000     0.213690000000     0.528      
Cu       Cu     0.524362500000     0.923522500000     0.630356666667     0.528      
Cu       Cu     0.725637500000     0.826477500000     0.463690000000     0.528      
Cu       Cu     0.576477500000     0.774362500000     0.380356666667     0.528      
Cu       Cu     0.673522500000     0.975637500000     0.547023333333     0.528      
Cu       Cu     0.524362500000     0.923522500000     0.963690000000     0.528      
Cu       Cu     0.725637500000     0.826477500000     0.797023333333     0.528      
Cu       Cu     0.576477500000     0.774362500000     0.713690000000     0.528      
Cu       Cu     0.673522500000     0.975637500000     0.880356666667     0.528      
Cu       Cu     0.774362500000     0.173522500000     0.297023333333     0.528      
Cu       Cu     0.975637500000     0.076477500000     0.130356666667     0.528      
Cu       Cu     0.826477500000     0.024362500000     0.047023333333     0.528      
Cu       Cu     0.923522500000     0.225637500000     0.213690000000     0.528      
Cu       Cu     0.774362500000     0.173522500000     0.630356666667     0.528      
Cu       Cu     0.975637500000     0.076477500000     0.463690000000     0.528      
Cu       Cu     0.826477500000     0.024362500000     0.380356666667     0.528      
Cu       Cu     0.923522500000     0.225637500000     0.547023333333     0.528      
Cu       Cu     0.774362500000     0.173522500000     0.963690000000     0.528      
Cu       Cu     0.975637500000     0.076477500000     0.797023333333     0.528      
Cu       Cu     0.826477500000     0.024362500000     0.713690000000     0.528      
Cu       Cu     0.923522500000     0.225637500000     0.880356666667     0.528      
Cu       Cu     0.774362500000     0.423522500000     0.297023333333     0.528      
Cu       Cu     0.975637500000     0.326477500000     0.130356666667     0.528      
Cu       Cu     0.826477500000     0.274362500000     0.047023333333     0.528      
Cu       Cu     0.923522500000     0.475637500000     0.213690000000     0.528      
Cu       Cu     0.774362500000     0.423522500000     0.630356666667     0.528      
Cu       Cu     0.975637500000     0.326477500000     0.463690000000     0.528      
Cu       Cu     0.826477500000     0.274362500000     0.380356666667     0.528      
Cu       Cu     0.923522500000     0.475637500000     0.547023333333     0.528      
Cu       Cu     0.774362500000     0.423522500000     0.963690000000     0.528      
Cu       Cu     0.975637500000     0.326477500000     0.797023333333     0.528      
Cu       Cu     0.826477500000     0.274362500000     0.713690000000     0.528      
Cu       Cu     0.923522500000     0.475637500000     0.880356666667     0.528      
Cu       Cu     0.774362500000     0.673522500000     0.297023333333     0.528      
Cu       Cu     0.975637500000     0.576477500000     0.130356666667     0.528      
Cu       Cu     0.826477500000     0.524362500000     0.047023333333     0.528      
Cu       Cu     0.923522500000     0.725637500000     0.213690000000     0.528      
Cu       Cu     0.774362500000     0.673522500000     0.630356666667     0.528      
Cu       Cu     0.975637500000     0.576477500000     0.463690000000     0.528      
Cu       Cu     0.826477500000     0.524362500000     0.380356666667     0.528      
Cu       Cu     0.923522500000     0.725637500000     0.547023333333     0.528      
Cu       Cu     0.774362500000     0.673522500000     0.963690000000     0.528      
Cu       Cu     0.975637500000     0.576477500000     0.797023333333     0.528      
Cu       Cu     0.826477500000     0.524362500000     0.713690000000     0.528      
Cu       Cu     0.923522500000     0.725637500000     0.880356666667     0.528      
Cu       Cu     0.774362500000     0.923522500000     0.297023333333     0.528      
Cu       Cu     0.975637500000     0.826477500000     0.130356666667     0.528      
Cu       Cu     0.826477500000     0.774362500000     0.047023333333     0.528      
Cu       Cu     0.923522500000     0.975637500000     0.213690000000     0.528      
Cu       Cu     0.774362500000     0.923522500000     0.630356666667     0.528      
Cu       Cu     0.975637500000     0.826477500000     0.463690000000     0.528      
Cu       Cu     0.826477500000     0.774362500000     0.380356666667     0.528      
Cu       Cu     0.923522500000     0.975637500000     0.547023333333     0.528      
Cu       Cu     0.774362500000     0.923522500000     0.963690000000     0.528      
Cu       Cu     0.975637500000     0.826477500000     0.797023333333     0.528      
Cu       Cu     0.826477500000     0.774362500000     0.713690000000     0.528      
Cu       Cu     0.923522500000     0.975637500000     0.880356666667     0.528      
H        H      0.140350000000     0.205750000000     0.296666666667     0.539      
H        H      0.117875000000     0.167300000000     0.308800000000     0.539      
H        H      0.109650000000     0.044250000000     0.130000000000     0.539      
H        H      0.132125000000     0.082700000000     0.142133333333     0.539      
H        H      0.044250000000     0.140350000000     0.046666666667     0.539      
H        H      0.082700000000     0.117875000000     0.058800000000     0.539      
H        H      0.205750000000     0.109650000000     0.213333333333     0.539      
H        H      0.167300000000     0.132125000000     0.225466666667     0.539      
H        H      0.140350000000     0.205750000000     0.630000000000     0.539      
H        H      0.117875000000     0.167300000000     0.642133333333     0.539      
H        H      0.109650000000     0.044250000000     0.463333333333     0.539      
H        H      0.132125000000     0.082700000000     0.475466666667     0.539      
H        H      0.044250000000     0.140350000000     0.380000000000     0.539      
H        H      0.082700000000     0.117875000000     0.392133333333     0.539      
H        H      0.205750000000     0.109650000000     0.546666666667     0.539      
H        H      0.167300000000     0.132125000000     0.558800000000     0.539      
H        H      0.140350000000     0.205750000000     0.963333333333     0.539      
H        H      0.117875000000     0.167300000000     0.975466666667     0.539      
H        H      0.109650000000     0.044250000000     0.796666666667     0.539      
H        H      0.132125000000     0.082700000000     0.808800000000     0.539      
H        H      0.044250000000     0.140350000000     0.713333333333     0.539      
H        H      0.082700000000     0.117875000000     0.725466666667     0.539      
H        H      0.205750000000     0.109650000000     0.880000000000     0.539      
H        H      0.167300000000     0.132125000000     0.892133333333     0.539      
H        H      0.140350000000     0.455750000000     0.296666666667     0.539      
H        H      0.117875000000     0.417300000000     0.308800000000     0.539      
H        H      0.109650000000     0.294250000000     0.130000000000     0.539      
H        H      0.132125000000     0.332700000000     0.142133333333     0.539      
H        H      0.044250000000     0.390350000000     0.046666666667     0.539      
H        H      0.082700000000     0.367875000000     0.058800000000     0.539      
H        H      0.205750000000     0.359650000000     0.213333333333     0.539      
H        H      0.167300000000     0.382125000000     0.225466666667     0.539      
H        H      0.140350000000     0.455750000000     0.630000000000     0.539      
H        H      0.117875000000     0.417300000000     0.642133333333     0.539      
H        H      0.109650000000     0.294250000000     0.463333333333     0.539      
H        H      0.132125000000     0.332700000000     0.475466666667     0.539      
H        H      0.044250000000     0.390350000000     0.380000000000     0.539      
H        H      0.082700000000     0.367875000000     0.392133333333     0.539      
H        H      0.205750000000     0.359650000000     0.546666666667     0.539      
H        H      0.167300000000     0.382125000000     0.558800000000     0.539      
H        H      0.140350000000     0.455750000000     0.963333333333     0.539      
H        H      0.117875000000     0.417300000000     0.975466666667     0.539      
H        H      0.109650000000     0.294250000000     0.796666666667     0.539      
H        H      0.132125000000     0.332700000000     0.808800000000     0.539      
H        H      0.044250000000     0.390350000000     0.713333333333     0.539      
H        H      0.082700000000     0.367875000000     0.725466666667     0.539      
H        H      0.205750000000     0.359650000000     0.880000000000     0.539      
H        H      0.167300000000     0.382125000000     0.892133333333     0.539      
H        H      0.140350000000     0.705750000000     0.296666666667     0.539      
H        H      0.117875000000     0.667300000000     0.308800000000     0.539      
H        H      0.109650000000     0.544250000000     0.130000000000     0.539      
H        H      0.132125000000     0.582700000000     0.142133333333     0.539      
H        H      0.044250000000     0.640350000000     0.046666666667     0.539      
H        H      0.082700000000     0.617875000000     0.058800000000     0.539      
H        H      0.205750000000     0.609650000000     0.213333333333     0.539      
H        H      0.167300000000     0.632125000000     0.225466666667     0.539      
H        H      0.140350000000     0.705750000000     0.630000000000     0.539      
H        H      0.117875000000     0.667300000000     0.642133333333     0.539      
H        H      0.109650000000     0.544250000000     0.463333333333     0.539      
H        H      0.132125000000     0.582700000000     0.475466666667     0.539      
H        H      0.044250000000     0.640350000000     0.380000000000     0.539      
H        H      0.082700000000     0.617875000000     0.392133333333     0.539      
H        H      0.205750000000     0.609650000000     0.546666666667     0.539      
H        H      0.167300000000     0.632125000000     0.558800000000     0.539      
H        H      0.140350000000     0.705750000000     0.963333333333     0.539      
H        H      0.117875000000     0.667300000000     0.975466666667     0.539      
H        H      0.109650000000     0.544250000000     0.796666666667     0.539      
H        H      0.132125000000     0.582700000000     0.808800000000     0.539      
H        H      0.044250000000     0.640350000000     0.713333333333     0.539      
H        H      0.082700000000     0.617875000000     0.725466666667     0.539      
H        H      0.205750000000     0.609650000000     0.880000000000     0.539      
H        H      0.167300000000     0.632125000000     0.892133333333     0.539      
H        H      0.140350000000     0.955750000000     0.296666666667     0.539      
H        H      0.117875000000     0.917300000000     0.308800000000     0.539      
H        H      0.109650000000     0.794250000000     0.130000000000     0.539      
H        H      0.132125000000     0.832700000000     0.142133333333     0.539      
H        H      0.044250000000     0.890350000000     0.046666666667     0.539      
H        H      0.082700000000     0.867875000000     0.058800000000     0.539      
H        H      0.205750000000     0.859650000000     0.213333333333     0.539      
H        H      0.167300000000     0.882125000000     0.225466666667     0.539      
H        H      0.140350000000     0.955750000000     0.630000000000     0.539      
H        H      0.117875000000     0.917300000000     0.642133333333     0.539      
H        H      0.109650000000     0.794250000000     0.463333333333     0.539      
H        H      0.132125000000     0.832700000000     0.475466666667     0.539      
H        H      0.044250000000     0.890350000000     0.380000000000     0.539      
H        H      0.082700000000     0.867875000000     0.392133333333     0.539      
H        H      0.205750000000     0.859650000000     0.546666666667     0.539      
H        H      0.167300000000     0.882125000000     0.558800000000     0.539      
H        H      0.140350000000     0.955750000000     0.963333333333     0.539      
H        H      0.117875000000     0.917300000000     0.975466666667     0.539      
H        H      0.109650000000     0.794250000000     0.796666666667     0.539      
H        H      0.132125000000     0.832700000000     0.808800000000     0.539      
H        H      0.044250000000     0.890350000000     0.713333333333     0.539      
H        H      0.082700000000     0.867875000000     0.725466666667     0.539      
H        H      0.205750000000     0.859650000000     0.880000000000     0.539      
H        H      0.167300000000     0.882125000000     0.892133333333     0.539      
H        H      0.390350000000     0.205750000000     0.296666666667     0.539      
H        H      0.367875000000     0.167300000000     0.308800000000     0.539      
H        H      0.359650000000     0.044250000000     0.130000000000     0.539      
H        H      0.382125000000     0.082700000000     0.142133333333     0.539      
H        H      0.294250000000     0.140350000000     0.046666666667     0.539      
H        H      0.332700000000     0.117875000000     0.058800000000     0.539      
H        H      0.455750000000     0.109650000000     0.213333333333     0.539      
H        H      0.417300000000     0.132125000000     0.225466666667     0.539      
H        H      0.390350000000     0.205750000000     0.630000000000     0.539      
H        H      0.367875000000     0.167300000000     0.642133333333     0.539      
H        H      0.359650000000     0.044250000000     0.463333333333     0.539      
H        H      0.382125000000     0.082700000000     0.475466666667     0.539      
H        H      0.294250000000     0.140350000000     0.380000000000     0.539      
H        H      0.332700000000     0.117875000000     0.392133333333     0.539      
H        H      0.455750000000     0.109650000000     0.546666666667     0.539      
H        H      0.417300000000     0.132125000000     0.558800000000     0.539      
H        H      0.390350000000     0.205750000000     0.963333333333     0.539      
H        H      0.367875000000     0.167300000000     0.975466666667     0.539      
H        H      0.359650000000     0.044250000000     0.796666666667     0.539      
H        H      0.382125000000     0.082700000000     0.808800000000     0.539      
H        H      0.294250000000     0.140350000000     0.713333333333     0.539      
H        H      0.332700000000     0.117875000000     0.725466666667     0.539      
H        H      0.455750000000     0.109650000000     0.880000000000     0.539      
H        H      0.417300000000     0.132125000000     0.892133333333     0.539      
H        H      0.390350000000     0.455750000000     0.296666666667     0.539      
H        H      0.367875000000     0.417300000000     0.308800000000     0.539      
H        H      0.359650000000     0.294250000000     0.130000000000     0.539      
H        H      0.382125000000     0.332700000000     0.142133333333     0.539      
H        H      0.294250000000     0.390350000000     0.046666666667     0.539      
H        H      0.332700000000     0.367875000000     0.058800000000     0.539      
H        H      0.455750000000     0.359650000000     0.213333333333     0.539      
H        H      0.417300000000     0.382125000000     0.225466666667     0.539      
H        H      0.390350000000     0.455750000000     0.630000000000     0.539      
H        H      0.367875000000     0.417300000000     0.642133333333     0.539      
H        H      0.359650000000     0.294250000000     0.463333333333     0.539      
H        H      0.382125000000     0.332700000000     0.475466666667     0.539      
H        H      0.294250000000     0.390350000000     0.380000000000     0.539      
H        H      0.332700000000     0.367875000000     0.392133333333     0.539      
H        H      0.455750000000     0.359650000000     0.546666666667     0.539      
H        H      0.417300000000     0.382125000000     0.558800000000     0.539      
H        H      0.390350000000     0.455750000000     0.963333333333     0.539      
H        H      0.367875000000     0.417300000000     0.975466666667     0.539      
H        H      0.359650000000     0.294250000000     0.796666666667     0.539      
H        H      0.382125000000     0.332700000000     0.808800000000     0.539      
H        H      0.294250000000     0.390350000000     0.713333333333     0.539      
H        H      0.332700000000     0.367875000000     0.725466666667     0.539      
H        H      0.455750000000     0.359650000000     0.880000000000     0.539      
H        H      0.417300000000     0.382125000000     0.892133333333     0.539      
H        H      0.390350000000     0.705750000000     0.296666666667     0.539      
H        H      0.367875000000     0.667300000000     0.308800000000     0.539      
H        H      0.359650000000     0.544250000000     0.130000000000     0.539      
H        H      0.382125000000     0.582700000000     0.142133333333     0.539      
H        H      0.294250000000     0.640350000000     0.046666666667     0.539      
H        H      0.332700000000     0.617875000000     0.058800000000     0.539      
H        H      0.455750000000     0.609650000000     0.213333333333     0.539      
H        H      0.417300000000     0.632125000000     0.225466666667     0.539      
H        H      0.390350000000     0.705750000000     0.630000000000     0.539      
H        H      0.367875000000     0.667300000000     0.642133333333     0.539      
H        H      0.359650000000     0.544250000000     0.463333333333     0.539      
H        H      0.382125000000     0.582700000000     0.475466666667     0.539      
H        H      0.294250000000     0.640350000000     0.380000000000     0.539      
H        H      0.332700000000     0.617875000000     0.392133333333     0.539      
H        H      0.455750000000     0.609650000000     0.546666666667     0.539      
H        H      0.417300000000     0.632125000000     0.558800000000     0.539      
H        H      0.390350000000     0.705750000000     0.963333333333     0.539      
H        H      0.367875000000     0.667300000000     0.975466666667     0.539      
H        H      0.359650000000     0.544250000000     0.796666666667     0.539      
H        H      0.382125000000     0.582700000000     0.808800000000     0.539      
H        H      0.294250000000     0.640350000000     0.713333333333     0.539      
H        H      0.332700000000     0.617875000000     0.725466666667     0.539      
H        H      0.455750000000     0.609650000000     0.880000000000     0.539      
H        H      0.417300000000     0.632125000000     0.892133333333     0.539      
H        H      0.390350000000     0.955750000000     0.296666666667     0.539      
H        H      0.367875000000     0.917300000000     0.308800000000     0.539      
H        H      0.359650000000     0.794250000000     0.130000000000     0.539      
H        H      0.382125000000     0.832700000000     0.142133333333     0.539      
H        H      0.294250000000     0.890350000000     0.046666666667     0.539      
H        H      0.332700000000     0.867875000000     0.058800000000     0.539      
H        H      0.455750000000     0.859650000000     0.213333333333     0.539      
H        H      0.417300000000     0.882125000000     0.225466666667     0.539      
H        H      0.390350000000     0.955750000000     0.630000000000     0.539      
H        H      0.367875000000     0.917300000000     0.642133333333     0.539      
H        H      0.359650000000     0.794250000000     0.463333333333     0.539      
H        H      0.382125000000     0.832700000000     0.475466666667     0.539      
H        H      0.294250000000     0.890350000000     0.380000000000     0.539      
H        H      0.332700000000     0.867875000000     0.392133333333     0.539      
H        H      0.455750000000     0.859650000000     0.546666666667     0.539      
H        H      0.417300000000     0.882125000000     0.558800000000     0.539      
H        H      0.390350000000     0.955750000000     0.963333333333     0.539      
H        H      0.367875000000     0.917300000000     0.975466666667     0.539      
H        H      0.359650000000     0.794250000000     0.796666666667     0.539      
H        H      0.382125000000     0.832700000000     0.808800000000     0.539      
H        H      0.294250000000     0.890350000000     0.713333333333     0.539      
H        H      0.332700000000     0.867875000000     0.725466666667     0.539      
H        H      0.455750000000     0.859650000000     0.880000000000     0.539      
H        H      0.417300000000     0.882125000000     0.892133333333     0.539      
H        H      0.640350000000     0.205750000000     0.296666666667     0.539      
H        H      0.617875000000     0.167300000000     0.308800000000     0.539      
H        H      0.609650000000     0.044250000000     0.130000000000     0.539      
H        H      0.632125000000     0.082700000000     0.142133333333     0.539      
H        H      0.544250000000     0.140350000000     0.046666666667     0.539      
H        H      0.582700000000     0.117875000000     0.058800000000     0.539      
H        H      0.705750000000     0.109650000000     0.213333333333     0.539      
H        H      0.667300000000     0.132125000000     0.225466666667     0.539      
H        H      0.640350000000     0.205750000000     0.630000000000     0.539      
H        H      0.617875000000     0.167300000000     0.642133333333     0.539      
H        H      0.609650000000     0.044250000000     0.463333333333     0.539      
H        H      0.632125000000     0.082700000000     0.475466666667     0.539      
H        H      0.544250000000     0.140350000000     0.380000000000     0.539      
H        H      0.582700000000     0.117875000000     0.392133333333     0.539      
H        H      0.705750000000     0.109650000000     0.546666666667     0.539      
H        H      0.667300000000     0.132125000000     0.558800000000     0.539      
H        H      0.640350000000     0.205750000000     0.963333333333     0.539      
H        H      0.617875000000     0.167300000000     0.975466666667     0.539      
H        H      0.609650000000     0.044250000000     0.796666666667     0.539      
H        H      0.632125000000     0.082700000000     0.808800000000     0.539      
H        H      0.544250000000     0.140350000000     0.713333333333     0.539      
H        H      0.582700000000     0.117875000000     0.725466666667     0.539      
H        H      0.705750000000     0.109650000000     0.880000000000     0.539      
H        H      0.667300000000     0.132125000000     0.892133333333     0.539      
H        H      0.640350000000     0.455750000000     0.296666666667     0.539      
H        H      0.617875000000     0.417300000000     0.308800000000     0.539      
H        H      0.609650000000     0.294250000000     0.130000000000     0.539      
H        H      0.632125000000     0.332700000000     0.142133333333     0.539      
H        H      0.544250000000     0.390350000000     0.046666666667     0.539      
H        H      0.582700000000     0.367875000000     0.058800000000     0.539      
H        H      0.705750000000     0.359650000000     0.213333333333     0.539      
H        H      0.667300000000     0.382125000000     0.225466666667     0.539      
H        H      0.640350000000     0.455750000000     0.630000000000     0.539      
H        H      0.617875000000     0.417300000000     0.642133333333     0.539      
H        H      0.609650000000     0.294250000000     0.463333333333     0.539      
H        H      0.632125000000     0.332700000000     0.475466666667     0.539      
H        H      0.544250000000     0.390350000000     0.380000000000     0.539      
H        H      0.582700000000     0.367875000000     0.392133333333     0.539      
H        H      0.705750000000     0.359650000000     0.546666666667     0.539      
H        H      0.667300000000     0.382125000000     0.558800000000     0.539      
H        H      0.640350000000     0.455750000000     0.963333333333     0.539      
H        H      0.617875000000     0.417300000000     0.975466666667     0.539      
H        H      0.609650000000     0.294250000000     0.796666666667     0.539      
H        H      0.632125000000     0.332700000000     0.808800000000     0.539      
H        H      0.544250000000     0.390350000000     0.713333333333     0.539      
H        H      0.582700000000     0.367875000000     0.725466666667     0.539      
H        H      0.705750000000     0.359650000000     0.880000000000     0.539      
H        H      0.667300000000     0.382125000000     0.892133333333     0.539      
H        H      0.640350000000     0.705750000000     0.296666666667     0.539      
H        H      0.617875000000     0.667300000000     0.308800000000     0.539      
H        H      0.609650000000     0.544250000000     0.130000000000     0.539      
H        H      0.632125000000     0.582700000000     0.142133333333     0.539      
H        H      0.544250000000     0.640350000000     0.046666666667     0.539      
H        H      0.582700000000     0.617875000000     0.058800000000     0.539      
H        H      0.705750000000     0.609650000000     0.213333333333     0.539      
H        H      0.667300000000     0.632125000000     0.225466666667     0.539      
H        H      0.640350000000     0.705750000000     0.630000000000     0.539      
H        H      0.617875000000     0.667300000000     0.642133333333     0.539      
H        H      0.609650000000     0.544250000000     0.463333333333     0.539      
H        H      0.632125000000     0.582700000000     0.475466666667     0.539      
H        H      0.544250000000     0.640350000000     0.380000000000     0.539      
H        H      0.582700000000     0.617875000000     0.392133333333     0.539      
H        H      0.705750000000     0.609650000000     0.546666666667     0.539      
H        H      0.667300000000     0.632125000000     0.558800000000     0.539      
H        H      0.640350000000     0.705750000000     0.963333333333     0.539      
H        H      0.617875000000     0.667300000000     0.975466666667     0.539      
H        H      0.609650000000     0.544250000000     0.796666666667     0.539      
H        H      0.632125000000     0.582700000000     0.808800000000     0.539      
H        H      0.544250000000     0.640350000000     0.713333333333     0.539      
H        H      0.582700000000     0.617875000000     0.725466666667     0.539      
H        H      0.705750000000     0.609650000000     0.880000000000     0.539      
H        H      0.667300000000     0.632125000000     0.892133333333     0.539      
H        H      0.640350000000     0.955750000000     0.296666666667     0.539      
H        H      0.617875000000     0.917300000000     0.308800000000     0.539      
H        H      0.609650000000     0.794250000000     0.130000000000     0.539      
H        H      0.632125000000     0.832700000000     0.142133333333     0.539      
H        H      0.544250000000     0.890350000000     0.046666666667     0.539      
H        H      0.582700000000     0.867875000000     0.058800000000     0.539      
H        H      0.705750000000     0.859650000000     0.213333333333     0.539      
H        H      0.667300000000     0.882125000000     0.225466666667     0.539      
H        H      0.640350000000     0.955750000000     0.630000000000     0.539      
H        H      0.617875000000     0.917300000000     0.642133333333     0.539      
H        H      0.609650000000     0.794250000000     0.463333333333     0.539      
H        H      0.632125000000     0.832700000000     0.475466666667     0.539      
H        H      0.544250000000     0.890350000000     0.380000000000     0.539      
H        H      0.582700000000     0.867875000000     0.392133333333     0.539      
H        H      0.705750000000     0.859650000000     0.546666666667     0.539      
H        H      0.667300000000     0.882125000000     0.558800000000     0.539      
H        H      0.640350000000     0.955750000000     0.963333333333     0.539      
H        H      0.617875000000     0.917300000000     0.975466666667     0.539      
H        H      0.609650000000     0.794250000000     0.796666666667     0.539      
H        H      0.632125000000     0.832700000000     0.808800000000     0.539      
H        H      0.544250000000     0.890350000000     0.713333333333     0.539      
H        H      0.582700000000     0.867875000000     0.725466666667     0.539      
H        H      0.705750000000     0.859650000000     0.880000000000     0.539      
H        H      0.667300000000     0.882125000000     0.892133333333     0.539      
H        H      0.890350000000     0.205750000000     0.296666666667     0.539      
H        H      0.867875000000     0.167300000000     0.308800000000     0.539      
H        H      0.859650000000     0.044250000000     0.130000000000     0.539      
H        H      0.882125000000     0.082700000000     0.142133333333     0.539      
H        H      0.794250000000     0.140350000000     0.046666666667     0.539      
H        H      0.832700000000     0.117875000000     0.058800000000     0.539      
H        H      0.955750000000     0.109650000000     0.213333333333     0.539      
H        H      0.917300000000     0.132125000000     0.225466666667     0.539      
H        H      0.890350000000     0.205750000000     0.630000000000     0.539      
H        H      0.867875000000     0.167300000000     0.642133333333     0.539      
H        H      0.859650000000     0.044250000000     0.463333333333     0.539      
H        H      0.882125000000     0.082700000000     0.475466666667     0.539      
H        H      0.794250000000     0.140350000000     0.380000000000     0.539      
H        H      0.832700000000     0.117875000000     0.392133333333     0.539      
H        H      0.955750000000     0.109650000000     0.546666666667     0.539      
H        H      0.917300000000     0.132125000000     0.558800000000     0.539      
H        H      0.890350000000     0.205750000000     0.963333333333     0.539      
H        H      0.867875000000     0.167300000000     0.975466666667     0.539      
H        H      0.859650000000     0.044250000000     0.796666666667     0.539      
H        H      0.882125000000     0.082700000000     0.808800000000     0.539      
H        H      0.794250000000     0.140350000000     0.713333333333     0.539      
H        H      0.832700000000     0.117875000000     0.725466666667     0.539      
H        H      0.955750000000     0.109650000000     0.880000000000     0.539      
H        H      0.917300000000     0.132125000000     0.892133333333     0.539      
H        H      0.890350000000     0.455750000000     0.296666666667     0.539      
H        H      0.867875000000     0.417300000000     0.308800000000     0.539      
H        H      0.859650000000     0.294250000000     0.130000000000     0.539      
H        H      0.882125000000     0.332700000000     0.142133333333     0.539      
H        H      0.794250000000     0.390350000000     0.046666666667     0.539      
H        H      0.832700000000     0.367875000000     0.058800000000     0.539      
H        H      0.955750000000     0.359650000000     0.213333333333     0.539      
H        H      0.917300000000     0.382125000000     0.225466666667     0.539      
H        H      0.890350000000     0.455750000000     0.630000000000     0.539      
H        H      0.867875000000     0.417300000000     0.642133333333     0.539      
H        H      0.859650000000     0.294250000000     0.463333333333     0.539      
H        H      0.882125000000     0.332700000000     0.475466666667     0.539      
H        H      0.794250000000     0.390350000000     0.380000000000     0.539      
H        H      0.832700000000     0.367875000000     0.392133333333     0.539      
H        H      0.955750000000     0.359650000000     0.546666666667     0.539      
H        H      0.917300000000     0.382125000000     0.558800000000     0.539      
H        H      0.890350000000     0.455750000000     0.963333333333     0.539      
H        H      0.867875000000     0.417300000000     0.975466666667     0.539      
H        H      0.859650000000     0.294250000000     0.796666666667     0.539      
H        H      0.882125000000     0.332700000000     0.808800000000     0.539      
H        H      0.794250000000     0.390350000000     0.713333333333     0.539      
H        H      0.832700000000     0.367875000000     0.725466666667     0.539      
H        H      0.955750000000     0.359650000000     0.880000000000     0.539      
H        H      0.917300000000     0.382125000000     0.892133333333     0.539      
H        H      0.890350000000     0.705750000000     0.296666666667     0.539      
H        H      0.867875000000     0.667300000000     0.308800000000     0.539      
H        H      0.859650000000     0.544250000000     0.130000000000     0.539      
H        H      0.882125000000     0.582700000000     0.142133333333     0.539      
H        H      0.794250000000     0.640350000000     0.046666666667     0.539      
H        H      0.832700000000     0.617875000000     0.058800000000     0.539      
H        H      0.955750000000     0.609650000000     0.213333333333     0.539      
H        H      0.917300000000     0.632125000000     0.225466666667     0.539      
H        H      0.890350000000     0.705750000000     0.630000000000     0.539      
H        H      0.867875000000     0.667300000000     0.642133333333     0.539      
H        H      0.859650000000     0.544250000000     0.463333333333     0.539      
H        H      0.882125000000     0.582700000000     0.475466666667     0.539      
H        H      0.794250000000     0.640350000000     0.380000000000     0.539      
H        H      0.832700000000     0.617875000000     0.392133333333     0.539      
H        H      0.955750000000     0.609650000000     0.546666666667     0.539      
H        H      0.917300000000     0.632125000000     0.558800000000     0.539      
H        H      0.890350000000     0.705750000000     0.963333333333     0.539      
H        H      0.867875000000     0.667300000000     0.975466666667     0.539      
H        H      0.859650000000     0.544250000000     0.796666666667     0.539      
H        H      0.882125000000     0.582700000000     0.808800000000     0.539      
H        H      0.794250000000     0.640350000000     0.713333333333     0.539      
H        H      0.832700000000     0.617875000000     0.725466666667     0.539      
H        H      0.955750000000     0.609650000000     0.880000000000     0.539      
H        H      0.917300000000     0.632125000000     0.892133333333     0.539      
H        H      0.890350000000     0.955750000000     0.296666666667     0.539      
H        H      0.867875000000     0.917300000000     0.308800000000     0.539      
H        H      0.859650000000     0.794250000000     0.130000000000     0.539      
H        H      0.882125000000     0.832700000000     0.142133333333     0.539      
H        H      0.794250000000     0.890350000000     0.046666666667     0.539      
H        H      0.832700000000     0.867875000000     0.058800000000     0.539      
H        H      0.955750000000     0.859650000000     0.213333333333     0.539      
H        H      0.917300000000     0.882125000000     0.225466666667     0.539      
H        H      0.890350000000     0.955750000000     0.630000000000     0.539      
H        H      0.867875000000     0.917300000000     0.642133333333     0.539      
H        H      0.859650000000     0.794250000000     0.463333333333     0.539      
H        H      0.882125000000     0.832700000000     0.475466666667     0.539      
H        H      0.794250000000     0.890350000000     0.380000000000     0.539      
H        H      0.832700000000     0.867875000000     0.392133333333     0.539      
H        H      0.955750000000     0.859650000000     0.546666666667     0.539      
H        H      0.917300000000     0.882125000000     0.558800000000     0.539      
H        H      0.890350000000     0.955750000000     0.963333333333     0.539      
H        H      0.867875000000     0.917300000000     0.975466666667     0.539      
H        H      0.859650000000     0.794250000000     0.796666666667     0.539      
H        H      0.882125000000     0.832700000000     0.808800000000     0.539      
H        H      0.794250000000     0.890350000000     0.713333333333     0.539      
H        H      0.832700000000     0.867875000000     0.725466666667     0.539      
H        H      0.955750000000     0.859650000000     0.880000000000     0.539      
H        H      0.917300000000     0.882125000000     0.892133333333     0.539      
O        O      0.060150000000     0.183100000000     0.256520000000    -0.72       
O        O      0.052675000000     0.212950000000     0.327380000000    -0.72       
O        O      0.119775000000     0.191775000000     0.232750000000    -0.72       
O        O      0.108225000000     0.241125000000     0.013413333333    -0.72       
O        O      0.189850000000     0.066900000000     0.089853333333    -0.72       
O        O      0.197325000000     0.037050000000     0.160713333333    -0.72       
O        O      0.130225000000     0.058225000000     0.066083333333    -0.72       
O        O      0.141775000000     0.008875000000     0.180080000000    -0.72       
O        O      0.066900000000     0.060150000000     0.006520000000    -0.72       
O        O      0.037050000000     0.052675000000     0.077380000000    -0.72       
O        O      0.058225000000     0.119775000000     0.316083333333    -0.72       
O        O      0.008875000000     0.108225000000     0.096746666667    -0.72       
O        O      0.183100000000     0.189850000000     0.173186666667    -0.72       
O        O      0.212950000000     0.197325000000     0.244046666667    -0.72       
O        O      0.191775000000     0.130225000000     0.149416666667    -0.72       
O        O      0.241125000000     0.141775000000     0.263413333333    -0.72       
O        O      0.060150000000     0.183100000000     0.589853333333    -0.72       
O        O      0.052675000000     0.212950000000     0.660713333333    -0.72       
O        O      0.119775000000     0.191775000000     0.566083333333    -0.72       
O        O      0.108225000000     0.241125000000     0.346746666667    -0.72       
O        O      0.189850000000     0.066900000000     0.423186666667    -0.72       
O        O      0.197325000000     0.037050000000     0.494046666667    -0.72       
O        O      0.130225000000     0.058225000000     0.399416666667    -0.72       
O        O      0.141775000000     0.008875000000     0.513413333333    -0.72       
O        O      0.066900000000     0.060150000000     0.339853333333    -0.72       
O        O      0.037050000000     0.052675000000     0.410713333333    -0.72       
O        O      0.058225000000     0.119775000000     0.649416666667    -0.72       
O        O      0.008875000000     0.108225000000     0.430080000000    -0.72       
O        O      0.183100000000     0.189850000000     0.506520000000    -0.72       
O        O      0.212950000000     0.197325000000     0.577380000000    -0.72       
O        O      0.191775000000     0.130225000000     0.482750000000    -0.72       
O        O      0.241125000000     0.141775000000     0.596746666667    -0.72       
O        O      0.060150000000     0.183100000000     0.923186666667    -0.72       
O        O      0.052675000000     0.212950000000     0.994046666667    -0.72       
O        O      0.119775000000     0.191775000000     0.899416666667    -0.72       
O        O      0.108225000000     0.241125000000     0.680080000000    -0.72       
O        O      0.189850000000     0.066900000000     0.756520000000    -0.72       
O        O      0.197325000000     0.037050000000     0.827380000000    -0.72       
O        O      0.130225000000     0.058225000000     0.732750000000    -0.72       
O        O      0.141775000000     0.008875000000     0.846746666667    -0.72       
O        O      0.066900000000     0.060150000000     0.673186666667    -0.72       
O        O      0.037050000000     0.052675000000     0.744046666667    -0.72       
O        O      0.058225000000     0.119775000000     0.982750000000    -0.72       
O        O      0.008875000000     0.108225000000     0.763413333333    -0.72       
O        O      0.183100000000     0.189850000000     0.839853333333    -0.72       
O        O      0.212950000000     0.197325000000     0.910713333333    -0.72       
O        O      0.191775000000     0.130225000000     0.816083333333    -0.72       
O        O      0.241125000000     0.141775000000     0.930080000000    -0.72       
O        O      0.060150000000     0.433100000000     0.256520000000    -0.72       
O        O      0.052675000000     0.462950000000     0.327380000000    -0.72       
O        O      0.119775000000     0.441775000000     0.232750000000    -0.72       
O        O      0.108225000000     0.491125000000     0.013413333333    -0.72       
O        O      0.189850000000     0.316900000000     0.089853333333    -0.72       
O        O      0.197325000000     0.287050000000     0.160713333333    -0.72       
O        O      0.130225000000     0.308225000000     0.066083333333    -0.72       
O        O      0.141775000000     0.258875000000     0.180080000000    -0.72       
O        O      0.066900000000     0.310150000000     0.006520000000    -0.72       
O        O      0.037050000000     0.302675000000     0.077380000000    -0.72       
O        O      0.058225000000     0.369775000000     0.316083333333    -0.72       
O        O      0.008875000000     0.358225000000     0.096746666667    -0.72       
O        O      0.183100000000     0.439850000000     0.173186666667    -0.72       
O        O      0.212950000000     0.447325000000     0.244046666667    -0.72       
O        O      0.191775000000     0.380225000000     0.149416666667    -0.72       
O        O      0.241125000000     0.391775000000     0.263413333333    -0.72       
O        O      0.060150000000     0.433100000000     0.589853333333    -0.72       
O        O      0.052675000000     0.462950000000     0.660713333333    -0.72       
O        O      0.119775000000     0.441775000000     0.566083333333    -0.72       
O        O      0.108225000000     0.491125000000     0.346746666667    -0.72       
O        O      0.189850000000     0.316900000000     0.423186666667    -0.72       
O        O      0.197325000000     0.287050000000     0.494046666667    -0.72       
O        O      0.130225000000     0.308225000000     0.399416666667    -0.72       
O        O      0.141775000000     0.258875000000     0.513413333333    -0.72       
O        O      0.066900000000     0.310150000000     0.339853333333    -0.72       
O        O      0.037050000000     0.302675000000     0.410713333333    -0.72       
O        O      0.058225000000     0.369775000000     0.649416666667    -0.72       
O        O      0.008875000000     0.358225000000     0.430080000000    -0.72       
O        O      0.183100000000     0.439850000000     0.506520000000    -0.72       
O        O      0.212950000000     0.447325000000     0.577380000000    -0.72       
O        O      0.191775000000     0.380225000000     0.482750000000    -0.72       
O        O      0.241125000000     0.391775000000     0.596746666667    -0.72       
O        O      0.060150000000     0.433100000000     0.923186666667    -0.72       
O        O      0.052675000000     0.462950000000     0.994046666667    -0.72       
O        O      0.119775000000     0.441775000000     0.899416666667    -0.72       
O        O      0.108225000000     0.491125000000     0.680080000000    -0.72       
O        O      0.189850000000     0.316900000000     0.756520000000    -0.72       
O        O      0.197325000000     0.287050000000     0.827380000000    -0.72       
O        O      0.130225000000     0.308225000000     0.732750000000    -0.72       
O        O      0.141775000000     0.258875000000     0.846746666667    -0.72       
O        O      0.066900000000     0.310150000000     0.673186666667    -0.72       
O        O      0.037050000000     0.302675000000     0.744046666667    -0.72       
O        O      0.058225000000     0.369775000000     0.982750000000    -0.72       
O        O      0.008875000000     0.358225000000     0.763413333333    -0.72       
O        O      0.183100000000     0.439850000000     0.839853333333    -0.72       
O        O      0.212950000000     0.447325000000     0.910713333333    -0.72       
O        O      0.191775000000     0.380225000000     0.816083333333    -0.72       
O        O      0.241125000000     0.391775000000     0.930080000000    -0.72       
O        O      0.060150000000     0.683100000000     0.256520000000    -0.72       
O        O      0.052675000000     0.712950000000     0.327380000000    -0.72       
O        O      0.119775000000     0.691775000000     0.232750000000    -0.72       
O        O      0.108225000000     0.741125000000     0.013413333333    -0.72       
O        O      0.189850000000     0.566900000000     0.089853333333    -0.72       
O        O      0.197325000000     0.537050000000     0.160713333333    -0.72       
O        O      0.130225000000     0.558225000000     0.066083333333    -0.72       
O        O      0.141775000000     0.508875000000     0.180080000000    -0.72       
O        O      0.066900000000     0.560150000000     0.006520000000    -0.72       
O        O      0.037050000000     0.552675000000     0.077380000000    -0.72       
O        O      0.058225000000     0.619775000000     0.316083333333    -0.72       
O        O      0.008875000000     0.608225000000     0.096746666667    -0.72       
O        O      0.183100000000     0.689850000000     0.173186666667    -0.72       
O        O      0.212950000000     0.697325000000     0.244046666667    -0.72       
O        O      0.191775000000     0.630225000000     0.149416666667    -0.72       
O        O      0.241125000000     0.641775000000     0.263413333333    -0.72       
O        O      0.060150000000     0.683100000000     0.589853333333    -0.72       
O        O      0.052675000000     0.712950000000     0.660713333333    -0.72       
O        O      0.119775000000     0.691775000000     0.566083333333    -0.72       
O        O      0.108225000000     0.741125000000     0.346746666667    -0.72       
O        O      0.189850000000     0.566900000000     0.423186666667    -0.72       
O        O      0.197325000000     0.537050000000     0.494046666667    -0.72       
O        O      0.130225000000     0.558225000000     0.399416666667    -0.72       
O        O      0.141775000000     0.508875000000     0.513413333333    -0.72       
O        O      0.066900000000     0.560150000000     0.339853333333    -0.72       
O        O      0.037050000000     0.552675000000     0.410713333333    -0.72       
O        O      0.058225000000     0.619775000000     0.649416666667    -0.72       
O        O      0.008875000000     0.608225000000     0.430080000000    -0.72       
O        O      0.183100000000     0.689850000000     0.506520000000    -0.72       
O        O      0.212950000000     0.697325000000     0.577380000000    -0.72       
O        O      0.191775000000     0.630225000000     0.482750000000    -0.72       
O        O      0.241125000000     0.641775000000     0.596746666667    -0.72       
O        O      0.060150000000     0.683100000000     0.923186666667    -0.72       
O        O      0.052675000000     0.712950000000     0.994046666667    -0.72       
O        O      0.119775000000     0.691775000000     0.899416666667    -0.72       
O        O      0.108225000000     0.741125000000     0.680080000000    -0.72       
O        O      0.189850000000     0.566900000000     0.756520000000    -0.72       
O        O      0.197325000000     0.537050000000     0.827380000000    -0.72       
O        O      0.130225000000     0.558225000000     0.732750000000    -0.72       
O        O      0.141775000000     0.508875000000     0.846746666667    -0.72       
O        O      0.066900000000     0.560150000000     0.673186666667    -0.72       
O        O      0.037050000000     0.552675000000     0.744046666667    -0.72       
O        O      0.058225000000     0.619775000000     0.982750000000    -0.72       
O        O      0.008875000000     0.608225000000     0.763413333333    -0.72       
O        O      0.183100000000     0.689850000000     0.839853333333    -0.72       
O        O      0.212950000000     0.697325000000     0.910713333333    -0.72       
O        O      0.191775000000     0.630225000000     0.816083333333    -0.72       
O        O      0.241125000000     0.641775000000     0.930080000000    -0.72       
O        O      0.060150000000     0.933100000000     0.256520000000    -0.72       
O        O      0.052675000000     0.962950000000     0.327380000000    -0.72       
O        O      0.119775000000     0.941775000000     0.232750000000    -0.72       
O        O      0.108225000000     0.991125000000     0.013413333333    -0.72       
O        O      0.189850000000     0.816900000000     0.089853333333    -0.72       
O        O      0.197325000000     0.787050000000     0.160713333333    -0.72       
O        O      0.130225000000     0.808225000000     0.066083333333    -0.72       
O        O      0.141775000000     0.758875000000     0.180080000000    -0.72       
O        O      0.066900000000     0.810150000000     0.006520000000    -0.72       
O        O      0.037050000000     0.802675000000     0.077380000000    -0.72       
O        O      0.058225000000     0.869775000000     0.316083333333    -0.72       
O        O      0.008875000000     0.858225000000     0.096746666667    -0.72       
O        O      0.183100000000     0.939850000000     0.173186666667    -0.72       
O        O      0.212950000000     0.947325000000     0.244046666667    -0.72       
O        O      0.191775000000     0.880225000000     0.149416666667    -0.72       
O        O      0.241125000000     0.891775000000     0.263413333333    -0.72       
O        O      0.060150000000     0.933100000000     0.589853333333    -0.72       
O        O      0.052675000000     0.962950000000     0.660713333333    -0.72       
O        O      0.119775000000     0.941775000000     0.566083333333    -0.72       
O        O      0.108225000000     0.991125000000     0.346746666667    -0.72       
O        O      0.189850000000     0.816900000000     0.423186666667    -0.72       
O        O      0.197325000000     0.787050000000     0.494046666667    -0.72       
O        O      0.130225000000     0.808225000000     0.399416666667    -0.72       
O        O      0.141775000000     0.758875000000     0.513413333333    -0.72       
O        O      0.066900000000     0.810150000000     0.339853333333    -0.72       
O        O      0.037050000000     0.802675000000     0.410713333333    -0.72       
O        O      0.058225000000     0.869775000000     0.649416666667    -0.72       
O        O      0.008875000000     0.858225000000     0.430080000000    -0.72       
O        O      0.183100000000     0.939850000000     0.506520000000    -0.72       
O        O      0.212950000000     0.947325000000     0.577380000000    -0.72       
O        O      0.191775000000     0.880225000000     0.482750000000    -0.72       
O        O      0.241125000000     0.891775000000     0.596746666667    -0.72       
O        O      0.060150000000     0.933100000000     0.923186666667    -0.72       
O        O      0.052675000000     0.962950000000     0.994046666667    -0.72       
O        O      0.119775000000     0.941775000000     0.899416666667    -0.72       
O        O      0.108225000000     0.991125000000     0.680080000000    -0.72       
O        O      0.189850000000     0.816900000000     0.756520000000    -0.72       
O        O      0.197325000000     0.787050000000     0.827380000000    -0.72       
O        O      0.130225000000     0.808225000000     0.732750000000    -0.72       
O        O      0.141775000000     0.758875000000     0.846746666667    -0.72       
O        O      0.066900000000     0.810150000000     0.673186666667    -0.72       
O        O      0.037050000000     0.802675000000     0.744046666667    -0.72       
O        O      0.058225000000     0.869775000000     0.982750000000    -0.72       
O        O      0.008875000000     0.858225000000     0.763413333333    -0.72       
O        O      0.183100000000     0.939850000000     0.839853333333    -0.72       
O        O      0.212950000000     0.947325000000     0.910713333333    -0.72       
O        O      0.191775000000     0.880225000000     0.816083333333    -0.72       
O        O      0.241125000000     0.891775000000     0.930080000000    -0.72       
O        O      0.310150000000     0.183100000000     0.256520000000    -0.72       
O        O      0.302675000000     0.212950000000     0.327380000000    -0.72       
O        O      0.369775000000     0.191775000000     0.232750000000    -0.72       
O        O      0.358225000000     0.241125000000     0.013413333333    -0.72       
O        O      0.439850000000     0.066900000000     0.089853333333    -0.72       
O        O      0.447325000000     0.037050000000     0.160713333333    -0.72       
O        O      0.380225000000     0.058225000000     0.066083333333    -0.72       
O        O      0.391775000000     0.008875000000     0.180080000000    -0.72       
O        O      0.316900000000     0.060150000000     0.006520000000    -0.72       
O        O      0.287050000000     0.052675000000     0.077380000000    -0.72       
O        O      0.308225000000     0.119775000000     0.316083333333    -0.72       
O        O      0.258875000000     0.108225000000     0.096746666667    -0.72       
O        O      0.433100000000     0.189850000000     0.173186666667    -0.72       
O        O      0.462950000000     0.197325000000     0.244046666667    -0.72       
O        O      0.441775000000     0.130225000000     0.149416666667    -0.72       
O        O      0.491125000000     0.141775000000     0.263413333333    -0.72       
O        O      0.310150000000     0.183100000000     0.589853333333    -0.72       
O        O      0.302675000000     0.212950000000     0.660713333333    -0.72       
O        O      0.369775000000     0.191775000000     0.566083333333    -0.72       
O        O      0.358225000000     0.241125000000     0.346746666667    -0.72       
O        O      0.439850000000     0.066900000000     0.423186666667    -0.72       
O        O      0.447325000000     0.037050000000     0.494046666667    -0.72       
O        O      0.380225000000     0.058225000000     0.399416666667    -0.72       
O        O      0.391775000000     0.008875000000     0.513413333333    -0.72       
O        O      0.316900000000     0.060150000000     0.339853333333    -0.72       
O        O      0.287050000000     0.052675000000     0.410713333333    -0.72       
O        O      0.308225000000     0.119775000000     0.649416666667    -0.72       
O        O      0.258875000000     0.108225000000     0.430080000000    -0.72       
O        O      0.433100000000     0.189850000000     0.506520000000    -0.72       
O        O      0.462950000000     0.197325000000     0.577380000000    -0.72       
O        O      0.441775000000     0.130225000000     0.482750000000    -0.72       
O        O      0.491125000000     0.141775000000     0.596746666667    -0.72       
O        O      0.310150000000     0.183100000000     0.923186666667    -0.72       
O        O      0.302675000000     0.212950000000     0.994046666667    -0.72       
O        O      0.369775000000     0.191775000000     0.899416666667    -0.72       
O        O      0.358225000000     0.241125000000     0.680080000000    -0.72       
O        O      0.439850000000     0.066900000000     0.756520000000    -0.72       
O        O      0.447325000000     0.037050000000     0.827380000000    -0.72       
O        O      0.380225000000     0.058225000000     0.732750000000    -0.72       
O        O      0.391775000000     0.008875000000     0.846746666667    -0.72       
O        O      0.316900000000     0.060150000000     0.673186666667    -0.72       
O        O      0.287050000000     0.052675000000     0.744046666667    -0.72       
O        O      0.308225000000     0.119775000000     0.982750000000    -0.72       
O        O      0.258875000000     0.108225000000     0.763413333333    -0.72       
O        O      0.433100000000     0.189850000000     0.839853333333    -0.72       
O        O      0.462950000000     0.197325000000     0.910713333333    -0.72       
O        O      0.441775000000     0.130225000000     0.816083333333    -0.72       
O        O      0.491125000000     0.141775000000     0.930080000000    -0.72       
O        O      0.310150000000     0.433100000000     0.256520000000    -0.72       
O        O      0.302675000000     0.462950000000     0.327380000000    -0.72       
O        O      0.369775000000     0.441775000000     0.232750000000    -0.72       
O        O      0.358225000000     0.491125000000     0.013413333333    -0.72       
O        O      0.439850000000     0.316900000000     0.089853333333    -0.72       
O        O      0.447325000000     0.287050000000     0.160713333333    -0.72       
O        O      0.380225000000     0.308225000000     0.066083333333    -0.72       
O        O      0.391775000000     0.258875000000     0.180080000000    -0.72       
O        O      0.316900000000     0.310150000000     0.006520000000    -0.72       
O        O      0.287050000000     0.302675000000     0.077380000000    -0.72       
O        O      0.308225000000     0.369775000000     0.316083333333    -0.72       
O        O      0.258875000000     0.358225000000     0.096746666667    -0.72       
O        O      0.433100000000     0.439850000000     0.173186666667    -0.72       
O        O      0.462950000000     0.447325000000     0.244046666667    -0.72       
O        O      0.441775000000     0.380225000000     0.149416666667    -0.72       
O        O      0.491125000000     0.391775000000     0.263413333333    -0.72       
O        O      0.310150000000     0.433100000000     0.589853333333    -0.72       
O        O      0.302675000000     0.462950000000     0.660713333333    -0.72       
O        O      0.369775000000     0.441775000000     0.566083333333    -0.72       
O        O      0.358225000000     0.491125000000     0.346746666667    -0.72       
O        O      0.439850000000     0.316900000000     0.423186666667    -0.72       
O        O      0.447325000000     0.287050000000     0.494046666667    -0.72       
O        O      0.380225000000     0.308225000000     0.399416666667    -0.72       
O        O      0.391775000000     0.258875000000     0.513413333333    -0.72       
O        O      0.316900000000     0.310150000000     0.339853333333    -0.72       
O        O      0.287050000000     0.302675000000     0.410713333333    -0.72       
O        O      0.308225000000     0.369775000000     0.649416666667    -0.72       
O        O      0.258875000000     0.358225000000     0.430080000000    -0.72       
O        O      0.433100000000     0.439850000000     0.506520000000    -0.72       
O        O      0.462950000000     0.447325000000     0.577380000000    -0.72       
O        O      0.441775000000     0.380225000000     0.482750000000    -0.72       
O        O      0.491125000000     0.391775000000     0.596746666667    -0.72       
O        O      0.310150000000     0.433100000000     0.923186666667    -0.72       
O        O      0.302675000000     0.462950000000     0.994046666667    -0.72       
O        O      0.369775000000     0.441775000000     0.899416666667    -0.72       
O        O      0.358225000000     0.491125000000     0.680080000000    -0.72       
O        O      0.439850000000     0.316900000000     0.756520000000    -0.72       
O        O      0.447325000000     0.287050000000     0.827380000000    -0.72       
O        O      0.380225000000     0.308225000000     0.732750000000    -0.72       
O        O      0.391775000000     0.258875000000     0.846746666667    -0.72       
O        O      0.316900000000     0.310150000000     0.673186666667    -0.72       
O        O      0.287050000000     0.302675000000     0.744046666667    -0.72       
O        O      0.308225000000     0.369775000000     0.982750000000    -0.72       
O        O      0.258875000000     0.358225000000     0.763413333333    -0.72       
O        O      0.433100000000     0.439850000000     0.839853333333    -0.72       
O        O      0.462950000000     0.447325000000     0.910713333333    -0.72       
O        O      0.441775000000     0.380225000000     0.816083333333    -0.72       
O        O      0.491125000000     0.391775000000     0.930080000000    -0.72       
O        O      0.310150000000     0.683100000000     0.256520000000    -0.72       
O        O      0.302675000000     0.712950000000     0.327380000000    -0.72       
O        O      0.369775000000     0.691775000000     0.232750000000    -0.72       
O        O      0.358225000000     0.741125000000     0.013413333333    -0.72       
O        O      0.439850000000     0.566900000000     0.089853333333    -0.72       
O        O      0.447325000000     0.537050000000     0.160713333333    -0.72       
O        O      0.380225000000     0.558225000000     0.066083333333    -0.72       
O        O      0.391775000000     0.508875000000     0.180080000000    -0.72       
O        O      0.316900000000     0.560150000000     0.006520000000    -0.72       
O        O      0.287050000000     0.552675000000     0.077380000000    -0.72       
O        O      0.308225000000     0.619775000000     0.316083333333    -0.72       
O        O      0.258875000000     0.608225000000     0.096746666667    -0.72       
O        O      0.433100000000     0.689850000000     0.173186666667    -0.72       
O        O      0.462950000000     0.697325000000     0.244046666667    -0.72       
O        O      0.441775000000     0.630225000000     0.149416666667    -0.72       
O        O      0.491125000000     0.641775000000     0.263413333333    -0.72       
O        O      0.310150000000     0.683100000000     0.589853333333    -0.72       
O        O      0.302675000000     0.712950000000     0.660713333333    -0.72       
O        O      0.369775000000     0.691775000000     0.566083333333    -0.72       
O        O      0.358225000000     0.741125000000     0.346746666667    -0.72       
O        O      0.439850000000     0.566900000000     0.423186666667    -0.72       
O        O      0.447325000000     0.537050000000     0.494046666667    -0.72       
O        O      0.380225000000     0.558225000000     0.399416666667    -0.72       
O        O      0.391775000000     0.508875000000     0.513413333333    -0.72       
O        O      0.316900000000     0.560150000000     0.339853333333    -0.72       
O        O      0.287050000000     0.552675000000     0.410713333333    -0.72       
O        O      0.308225000000     0.619775000000     0.649416666667    -0.72       
O        O      0.258875000000     0.608225000000     0.430080000000    -0.72       
O        O      0.433100000000     0.689850000000     0.506520000000    -0.72       
O        O      0.462950000000     0.697325000000     0.577380000000    -0.72       
O        O      0.441775000000     0.630225000000     0.482750000000    -0.72       
O        O      0.491125000000     0.641775000000     0.596746666667    -0.72       
O        O      0.310150000000     0.683100000000     0.923186666667    -0.72       
O        O      0.302675000000     0.712950000000     0.994046666667    -0.72       
O        O      0.369775000000     0.691775000000     0.899416666667    -0.72       
O        O      0.358225000000     0.741125000000     0.680080000000    -0.72       
O        O      0.439850000000     0.566900000000     0.756520000000    -0.72       
O        O      0.447325000000     0.537050000000     0.827380000000    -0.72       
O        O      0.380225000000     0.558225000000     0.732750000000    -0.72       
O        O      0.391775000000     0.508875000000     0.846746666667    -0.72       
O        O      0.316900000000     0.560150000000     0.673186666667    -0.72       
O        O      0.287050000000     0.552675000000     0.744046666667    -0.72       
O        O      0.308225000000     0.619775000000     0.982750000000    -0.72       
O        O      0.258875000000     0.608225000000     0.763413333333    -0.72       
O        O      0.433100000000     0.689850000000     0.839853333333    -0.72       
O        O      0.462950000000     0.697325000000     0.910713333333    -0.72       
O        O      0.441775000000     0.630225000000     0.816083333333    -0.72       
O        O      0.491125000000     0.641775000000     0.930080000000    -0.72       
O        O      0.310150000000     0.933100000000     0.256520000000    -0.72       
O        O      0.302675000000     0.962950000000     0.327380000000    -0.72       
O        O      0.369775000000     0.941775000000     0.232750000000    -0.72       
O        O      0.358225000000     0.991125000000     0.013413333333    -0.72       
O        O      0.439850000000     0.816900000000     0.089853333333    -0.72       
O        O      0.447325000000     0.787050000000     0.160713333333    -0.72       
O        O      0.380225000000     0.808225000000     0.066083333333    -0.72       
O        O      0.391775000000     0.758875000000     0.180080000000    -0.72       
O        O      0.316900000000     0.810150000000     0.006520000000    -0.72       
O        O      0.287050000000     0.802675000000     0.077380000000    -0.72       
O        O      0.308225000000     0.869775000000     0.316083333333    -0.72       
O        O      0.258875000000     0.858225000000     0.096746666667    -0.72       
O        O      0.433100000000     0.939850000000     0.173186666667    -0.72       
O        O      0.462950000000     0.947325000000     0.244046666667    -0.72       
O        O      0.441775000000     0.880225000000     0.149416666667    -0.72       
O        O      0.491125000000     0.891775000000     0.263413333333    -0.72       
O        O      0.310150000000     0.933100000000     0.589853333333    -0.72       
O        O      0.302675000000     0.962950000000     0.660713333333    -0.72       
O        O      0.369775000000     0.941775000000     0.566083333333    -0.72       
O        O      0.358225000000     0.991125000000     0.346746666667    -0.72       
O        O      0.439850000000     0.816900000000     0.423186666667    -0.72       
O        O      0.447325000000     0.787050000000     0.494046666667    -0.72       
O        O      0.380225000000     0.808225000000     0.399416666667    -0.72       
O        O      0.391775000000     0.758875000000     0.513413333333    -0.72       
O        O      0.316900000000     0.810150000000     0.339853333333    -0.72       
O        O      0.287050000000     0.802675000000     0.410713333333    -0.72       
O        O      0.308225000000     0.869775000000     0.649416666667    -0.72       
O        O      0.258875000000     0.858225000000     0.430080000000    -0.72       
O        O      0.433100000000     0.939850000000     0.506520000000    -0.72       
O        O      0.462950000000     0.947325000000     0.577380000000    -0.72       
O        O      0.441775000000     0.880225000000     0.482750000000    -0.72       
O        O      0.491125000000     0.891775000000     0.596746666667    -0.72       
O        O      0.310150000000     0.933100000000     0.923186666667    -0.72       
O        O      0.302675000000     0.962950000000     0.994046666667    -0.72       
O        O      0.369775000000     0.941775000000     0.899416666667    -0.72       
O        O      0.358225000000     0.991125000000     0.680080000000    -0.72       
O        O      0.439850000000     0.816900000000     0.756520000000    -0.72       
O        O      0.447325000000     0.787050000000     0.827380000000    -0.72       
O        O      0.380225000000     0.808225000000     0.732750000000    -0.72       
O        O      0.391775000000     0.758875000000     0.846746666667    -0.72       
O        O      0.316900000000     0.810150000000     0.673186666667    -0.72       
O        O      0.287050000000     0.802675000000     0.744046666667    -0.72       
O        O      0.308225000000     0.869775000000     0.982750000000    -0.72       
O        O      0.258875000000     0.858225000000     0.763413333333    -0.72       
O        O      0.433100000000     0.939850000000     0.839853333333    -0.72       
O        O      0.462950000000     0.947325000000     0.910713333333    -0.72       
O        O      0.441775000000     0.880225000000     0.816083333333    -0.72       
O        O      0.491125000000     0.891775000000     0.930080000000    -0.72       
O        O      0.560150000000     0.183100000000     0.256520000000    -0.72       
O        O      0.552675000000     0.212950000000     0.327380000000    -0.72       
O        O      0.619775000000     0.191775000000     0.232750000000    -0.72       
O        O      0.608225000000     0.241125000000     0.013413333333    -0.72       
O        O      0.689850000000     0.066900000000     0.089853333333    -0.72       
O        O      0.697325000000     0.037050000000     0.160713333333    -0.72       
O        O      0.630225000000     0.058225000000     0.066083333333    -0.72       
O        O      0.641775000000     0.008875000000     0.180080000000    -0.72       
O        O      0.566900000000     0.060150000000     0.006520000000    -0.72       
O        O      0.537050000000     0.052675000000     0.077380000000    -0.72       
O        O      0.558225000000     0.119775000000     0.316083333333    -0.72       
O        O      0.508875000000     0.108225000000     0.096746666667    -0.72       
O        O      0.683100000000     0.189850000000     0.173186666667    -0.72       
O        O      0.712950000000     0.197325000000     0.244046666667    -0.72       
O        O      0.691775000000     0.130225000000     0.149416666667    -0.72       
O        O      0.741125000000     0.141775000000     0.263413333333    -0.72       
O        O      0.560150000000     0.183100000000     0.589853333333    -0.72       
O        O      0.552675000000     0.212950000000     0.660713333333    -0.72       
O        O      0.619775000000     0.191775000000     0.566083333333    -0.72       
O        O      0.608225000000     0.241125000000     0.346746666667    -0.72       
O        O      0.689850000000     0.066900000000     0.423186666667    -0.72       
O        O      0.697325000000     0.037050000000     0.494046666667    -0.72       
O        O      0.630225000000     0.058225000000     0.399416666667    -0.72       
O        O      0.641775000000     0.008875000000     0.513413333333    -0.72       
O        O      0.566900000000     0.060150000000     0.339853333333    -0.72       
O        O      0.537050000000     0.052675000000     0.410713333333    -0.72       
O        O      0.558225000000     0.119775000000     0.649416666667    -0.72       
O        O      0.508875000000     0.108225000000     0.430080000000    -0.72       
O        O      0.683100000000     0.189850000000     0.506520000000    -0.72       
O        O      0.712950000000     0.197325000000     0.577380000000    -0.72       
O        O      0.691775000000     0.130225000000     0.482750000000    -0.72       
O        O      0.741125000000     0.141775000000     0.596746666667    -0.72       
O        O      0.560150000000     0.183100000000     0.923186666667    -0.72       
O        O      0.552675000000     0.212950000000     0.994046666667    -0.72       
O        O      0.619775000000     0.191775000000     0.899416666667    -0.72       
O        O      0.608225000000     0.241125000000     0.680080000000    -0.72       
O        O      0.689850000000     0.066900000000     0.756520000000    -0.72       
O        O      0.697325000000     0.037050000000     0.827380000000    -0.72       
O        O      0.630225000000     0.058225000000     0.732750000000    -0.72       
O        O      0.641775000000     0.008875000000     0.846746666667    -0.72       
O        O      0.566900000000     0.060150000000     0.673186666667    -0.72       
O        O      0.537050000000     0.052675000000     0.744046666667    -0.72       
O        O      0.558225000000     0.119775000000     0.982750000000    -0.72       
O        O      0.508875000000     0.108225000000     0.763413333333    -0.72       
O        O      0.683100000000     0.189850000000     0.839853333333    -0.72       
O        O      0.712950000000     0.197325000000     0.910713333333    -0.72       
O        O      0.691775000000     0.130225000000     0.816083333333    -0.72       
O        O      0.741125000000     0.141775000000     0.930080000000    -0.72       
O        O      0.560150000000     0.433100000000     0.256520000000    -0.72       
O        O      0.552675000000     0.462950000000     0.327380000000    -0.72       
O        O      0.619775000000     0.441775000000     0.232750000000    -0.72       
O        O      0.608225000000     0.491125000000     0.013413333333    -0.72       
O        O      0.689850000000     0.316900000000     0.089853333333    -0.72       
O        O      0.697325000000     0.287050000000     0.160713333333    -0.72       
O        O      0.630225000000     0.308225000000     0.066083333333    -0.72       
O        O      0.641775000000     0.258875000000     0.180080000000    -0.72       
O        O      0.566900000000     0.310150000000     0.006520000000    -0.72       
O        O      0.537050000000     0.302675000000     0.077380000000    -0.72       
O        O      0.558225000000     0.369775000000     0.316083333333    -0.72       
O        O      0.508875000000     0.358225000000     0.096746666667    -0.72       
O        O      0.683100000000     0.439850000000     0.173186666667    -0.72       
O        O      0.712950000000     0.447325000000     0.244046666667    -0.72       
O        O      0.691775000000     0.380225000000     0.149416666667    -0.72       
O        O      0.741125000000     0.391775000000     0.263413333333    -0.72       
O        O      0.560150000000     0.433100000000     0.589853333333    -0.72       
O        O      0.552675000000     0.462950000000     0.660713333333    -0.72       
O        O      0.619775000000     0.441775000000     0.566083333333    -0.72       
O        O      0.608225000000     0.491125000000     0.346746666667    -0.72       
O        O      0.689850000000     0.316900000000     0.423186666667    -0.72       
O        O      0.697325000000     0.287050000000     0.494046666667    -0.72       
O        O      0.630225000000     0.308225000000     0.399416666667    -0.72       
O        O      0.641775000000     0.258875000000     0.513413333333    -0.72       
O        O      0.566900000000     0.310150000000     0.339853333333    -0.72       
O        O      0.537050000000     0.302675000000     0.410713333333    -0.72       
O        O      0.558225000000     0.369775000000     0.649416666667    -0.72       
O        O      0.508875000000     0.358225000000     0.430080000000    -0.72       
O        O      0.683100000000     0.439850000000     0.506520000000    -0.72       
O        O      0.712950000000     0.447325000000     0.577380000000    -0.72       
O        O      0.691775000000     0.380225000000     0.482750000000    -0.72       
O        O      0.741125000000     0.391775000000     0.596746666667    -0.72       
O        O      0.560150000000     0.433100000000     0.923186666667    -0.72       
O        O      0.552675000000     0.462950000000     0.994046666667    -0.72       
O        O      0.619775000000     0.441775000000     0.899416666667    -0.72       
O        O      0.608225000000     0.491125000000     0.680080000000    -0.72       
O        O      0.689850000000     0.316900000000     0.756520000000    -0.72       
O        O      0.697325000000     0.287050000000     0.827380000000    -0.72       
O        O      0.630225000000     0.308225000000     0.732750000000    -0.72       
O        O      0.641775000000     0.258875000000     0.846746666667    -0.72       
O        O      0.566900000000     0.310150000000     0.673186666667    -0.72       
O        O      0.537050000000     0.302675000000     0.744046666667    -0.72       
O        O      0.558225000000     0.369775000000     0.982750000000    -0.72       
O        O      0.508875000000     0.358225000000     0.763413333333    -0.72       
O        O      0.683100000000     0.439850000000     0.839853333333    -0.72       
O        O      0.712950000000     0.447325000000     0.910713333333    -0.72       
O        O      0.691775000000     0.380225000000     0.816083333333    -0.72       
O        O      0.741125000000     0.391775000000     0.930080000000    -0.72       
O        O      0.560150000000     0.683100000000     0.256520000000    -0.72       
O        O      0.552675000000     0.712950000000     0.327380000000    -0.72       
O        O      0.619775000000     0.691775000000     0.232750000000    -0.72       
O        O      0.608225000000     0.741125000000     0.013413333333    -0.72       
O        O      0.689850000000     0.566900000000     0.089853333333    -0.72       
O        O      0.697325000000     0.537050000000     0.160713333333    -0.72       
O        O      0.630225000000     0.558225000000     0.066083333333    -0.72       
O        O      0.641775000000     0.508875000000     0.180080000000    -0.72       
O        O      0.566900000000     0.560150000000     0.006520000000    -0.72       
O        O      0.537050000000     0.552675000000     0.077380000000    -0.72       
O        O      0.558225000000     0.619775000000     0.316083333333    -0.72       
O        O      0.508875000000     0.608225000000     0.096746666667    -0.72       
O        O      0.683100000000     0.689850000000     0.173186666667    -0.72       
O        O      0.712950000000     0.697325000000     0.244046666667    -0.72       
O        O      0.691775000000     0.630225000000     0.149416666667    -0.72       
O        O      0.741125000000     0.641775000000     0.263413333333    -0.72       
O        O      0.560150000000     0.683100000000     0.589853333333    -0.72       
O        O      0.552675000000     0.712950000000     0.660713333333    -0.72       
O        O      0.619775000000     0.691775000000     0.566083333333    -0.72       
O        O      0.608225000000     0.741125000000     0.346746666667    -0.72       
O        O      0.689850000000     0.566900000000     0.423186666667    -0.72       
O        O      0.697325000000     0.537050000000     0.494046666667    -0.72       
O        O      0.630225000000     0.558225000000     0.399416666667    -0.72       
O        O      0.641775000000     0.508875000000     0.513413333333    -0.72       
O        O      0.566900000000     0.560150000000     0.339853333333    -0.72       
O        O      0.537050000000     0.552675000000     0.410713333333    -0.72       
O        O      0.558225000000     0.619775000000     0.649416666667    -0.72       
O        O      0.508875000000     0.608225000000     0.430080000000    -0.72       
O        O      0.683100000000     0.689850000000     0.506520000000    -0.72       
O        O      0.712950000000     0.697325000000     0.577380000000    -0.72       
O        O      0.691775000000     0.630225000000     0.482750000000    -0.72       
O        O      0.741125000000     0.641775000000     0.596746666667    -0.72       
O        O      0.560150000000     0.683100000000     0.923186666667    -0.72       
O        O      0.552675000000     0.712950000000     0.994046666667    -0.72       
O        O      0.619775000000     0.691775000000     0.899416666667    -0.72       
O        O      0.608225000000     0.741125000000     0.680080000000    -0.72       
O        O      0.689850000000     0.566900000000     0.756520000000    -0.72       
O        O      0.697325000000     0.537050000000     0.827380000000    -0.72       
O        O      0.630225000000     0.558225000000     0.732750000000    -0.72       
O        O      0.641775000000     0.508875000000     0.846746666667    -0.72       
O        O      0.566900000000     0.560150000000     0.673186666667    -0.72       
O        O      0.537050000000     0.552675000000     0.744046666667    -0.72       
O        O      0.558225000000     0.619775000000     0.982750000000    -0.72       
O        O      0.508875000000     0.608225000000     0.763413333333    -0.72       
O        O      0.683100000000     0.689850000000     0.839853333333    -0.72       
O        O      0.712950000000     0.697325000000     0.910713333333    -0.72       
O        O      0.691775000000     0.630225000000     0.816083333333    -0.72       
O        O      0.741125000000     0.641775000000     0.930080000000    -0.72       
O        O      0.560150000000     0.933100000000     0.256520000000    -0.72       
O        O      0.552675000000     0.962950000000     0.327380000000    -0.72       
O        O      0.619775000000     0.941775000000     0.232750000000    -0.72       
O        O      0.608225000000     0.991125000000     0.013413333333    -0.72       
O        O      0.689850000000     0.816900000000     0.089853333333    -0.72       
O        O      0.697325000000     0.787050000000     0.160713333333    -0.72       
O        O      0.630225000000     0.808225000000     0.066083333333    -0.72       
O        O      0.641775000000     0.758875000000     0.180080000000    -0.72       
O        O      0.566900000000     0.810150000000     0.006520000000    -0.72       
O        O      0.537050000000     0.802675000000     0.077380000000    -0.72       
O        O      0.558225000000     0.869775000000     0.316083333333    -0.72       
O        O      0.508875000000     0.858225000000     0.096746666667    -0.72       
O        O      0.683100000000     0.939850000000     0.173186666667    -0.72       
O        O      0.712950000000     0.947325000000     0.244046666667    -0.72       
O        O      0.691775000000     0.880225000000     0.149416666667    -0.72       
O        O      0.741125000000     0.891775000000     0.263413333333    -0.72       
O        O      0.560150000000     0.933100000000     0.589853333333    -0.72       
O        O      0.552675000000     0.962950000000     0.660713333333    -0.72       
O        O      0.619775000000     0.941775000000     0.566083333333    -0.72       
O        O      0.608225000000     0.991125000000     0.346746666667    -0.72       
O        O      0.689850000000     0.816900000000     0.423186666667    -0.72       
O        O      0.697325000000     0.787050000000     0.494046666667    -0.72       
O        O      0.630225000000     0.808225000000     0.399416666667    -0.72       
O        O      0.641775000000     0.758875000000     0.513413333333    -0.72       
O        O      0.566900000000     0.810150000000     0.339853333333    -0.72       
O        O      0.537050000000     0.802675000000     0.410713333333    -0.72       
O        O      0.558225000000     0.869775000000     0.649416666667    -0.72       
O        O      0.508875000000     0.858225000000     0.430080000000    -0.72       
O        O      0.683100000000     0.939850000000     0.506520000000    -0.72       
O        O      0.712950000000     0.947325000000     0.577380000000    -0.72       
O        O      0.691775000000     0.880225000000     0.482750000000    -0.72       
O        O      0.741125000000     0.891775000000     0.596746666667    -0.72       
O        O      0.560150000000     0.933100000000     0.923186666667    -0.72       
O        O      0.552675000000     0.962950000000     0.994046666667    -0.72       
O        O      0.619775000000     0.941775000000     0.899416666667    -0.72       
O        O      0.608225000000     0.991125000000     0.680080000000    -0.72       
O        O      0.689850000000     0.816900000000     0.756520000000    -0.72       
O        O      0.697325000000     0.787050000000     0.827380000000    -0.72       
O        O      0.630225000000     0.808225000000     0.732750000000    -0.72       
O        O      0.641775000000     0.758875000000     0.846746666667    -0.72       
O        O      0.566900000000     0.810150000000     0.673186666667    -0.72       
O        O      0.537050000000     0.802675000000     0.744046666667    -0.72       
O        O      0.558225000000     0.869775000000     0.982750000000    -0.72       
O        O      0.508875000000     0.858225000000     0.763413333333    -0.72       
O        O      0.683100000000     0.939850000000     0.839853333333    -0.72       
O        O      0.712950000000     0.947325000000     0.910713333333    -0.72       
O        O      0.691775000000     0.880225000000     0.816083333333    -0.72       
O        O      0.741125000000     0.891775000000     0.930080000000    -0.72       
O        O      0.810150000000     0.183100000000     0.256520000000    -0.72       
O        O      0.802675000000     0.212950000000     0.327380000000    -0.72       
O        O      0.869775000000     0.191775000000     0.232750000000    -0.72       
O        O      0.858225000000     0.241125000000     0.013413333333    -0.72       
O        O      0.939850000000     0.066900000000     0.089853333333    -0.72       
O        O      0.947325000000     0.037050000000     0.160713333333    -0.72       
O        O      0.880225000000     0.058225000000     0.066083333333    -0.72       
O        O      0.891775000000     0.008875000000     0.180080000000    -0.72       
O        O      0.816900000000     0.060150000000     0.006520000000    -0.72       
O        O      0.787050000000     0.052675000000     0.077380000000    -0.72       
O        O      0.808225000000     0.119775000000     0.316083333333    -0.72       
O        O      0.758875000000     0.108225000000     0.096746666667    -0.72       
O        O      0.933100000000     0.189850000000     0.173186666667    -0.72       
O        O      0.962950000000     0.197325000000     0.244046666667    -0.72       
O        O      0.941775000000     0.130225000000     0.149416666667    -0.72       
O        O      0.991125000000     0.141775000000     0.263413333333    -0.72       
O        O      0.810150000000     0.183100000000     0.589853333333    -0.72       
O        O      0.802675000000     0.212950000000     0.660713333333    -0.72       
O        O      0.869775000000     0.191775000000     0.566083333333    -0.72       
O        O      0.858225000000     0.241125000000     0.346746666667    -0.72       
O        O      0.939850000000     0.066900000000     0.423186666667    -0.72       
O        O      0.947325000000     0.037050000000     0.494046666667    -0.72       
O        O      0.880225000000     0.058225000000     0.399416666667    -0.72       
O        O      0.891775000000     0.008875000000     0.513413333333    -0.72       
O        O      0.816900000000     0.060150000000     0.339853333333    -0.72       
O        O      0.787050000000     0.052675000000     0.410713333333    -0.72       
O        O      0.808225000000     0.119775000000     0.649416666667    -0.72       
O        O      0.758875000000     0.108225000000     0.430080000000    -0.72       
O        O      0.933100000000     0.189850000000     0.506520000000    -0.72       
O        O      0.962950000000     0.197325000000     0.577380000000    -0.72       
O        O      0.941775000000     0.130225000000     0.482750000000    -0.72       
O        O      0.991125000000     0.141775000000     0.596746666667    -0.72       
O        O      0.810150000000     0.183100000000     0.923186666667    -0.72       
O        O      0.802675000000     0.212950000000     0.994046666667    -0.72       
O        O      0.869775000000     0.191775000000     0.899416666667    -0.72       
O        O      0.858225000000     0.241125000000     0.680080000000    -0.72       
O        O      0.939850000000     0.066900000000     0.756520000000    -0.72       
O        O      0.947325000000     0.037050000000     0.827380000000    -0.72       
O        O      0.880225000000     0.058225000000     0.732750000000    -0.72       
O        O      0.891775000000     0.008875000000     0.846746666667    -0.72       
O        O      0.816900000000     0.060150000000     0.673186666667    -0.72       
O        O      0.787050000000     0.052675000000     0.744046666667    -0.72       
O        O      0.808225000000     0.119775000000     0.982750000000    -0.72       
O        O      0.758875000000     0.108225000000     0.763413333333    -0.72       
O        O      0.933100000000     0.189850000000     0.839853333333    -0.72       
O        O      0.962950000000     0.197325000000     0.910713333333    -0.72       
O        O      0.941775000000     0.130225000000     0.816083333333    -0.72       
O        O      0.991125000000     0.141775000000     0.930080000000    -0.72       
O        O      0.810150000000     0.433100000000     0.256520000000    -0.72       
O        O      0.802675000000     0.462950000000     0.327380000000    -0.72       
O        O      0.869775000000     0.441775000000     0.232750000000    -0.72       
O        O      0.858225000000     0.491125000000     0.013413333333    -0.72       
O        O      0.939850000000     0.316900000000     0.089853333333    -0.72       
O        O      0.947325000000     0.287050000000     0.160713333333    -0.72       
O        O      0.880225000000     0.308225000000     0.066083333333    -0.72       
O        O      0.891775000000     0.258875000000     0.180080000000    -0.72       
O        O      0.816900000000     0.310150000000     0.006520000000    -0.72       
O        O      0.787050000000     0.302675000000     0.077380000000    -0.72       
O        O      0.808225000000     0.369775000000     0.316083333333    -0.72       
O        O      0.758875000000     0.358225000000     0.096746666667    -0.72       
O        O      0.933100000000     0.439850000000     0.173186666667    -0.72       
O        O      0.962950000000     0.447325000000     0.244046666667    -0.72       
O        O      0.941775000000     0.380225000000     0.149416666667    -0.72       
O        O      0.991125000000     0.391775000000     0.263413333333    -0.72       
O        O      0.810150000000     0.433100000000     0.589853333333    -0.72       
O        O      0.802675000000     0.462950000000     0.660713333333    -0.72       
O        O      0.869775000000     0.441775000000     0.566083333333    -0.72       
O        O      0.858225000000     0.491125000000     0.346746666667    -0.72       
O        O      0.939850000000     0.316900000000     0.423186666667    -0.72       
O        O      0.947325000000     0.287050000000     0.494046666667    -0.72       
O        O      0.880225000000     0.308225000000     0.399416666667    -0.72       
O        O      0.891775000000     0.258875000000     0.513413333333    -0.72       
O        O      0.816900000000     0.310150000000     0.339853333333    -0.72       
O        O      0.787050000000     0.302675000000     0.410713333333    -0.72       
O        O      0.808225000000     0.369775000000     0.649416666667    -0.72       
O        O      0.758875000000     0.358225000000     0.430080000000    -0.72       
O        O      0.933100000000     0.439850000000     0.506520000000    -0.72       
O        O      0.962950000000     0.447325000000     0.577380000000    -0.72       
O        O      0.941775000000     0.380225000000     0.482750000000    -0.72       
O        O      0.991125000000     0.391775000000     0.596746666667    -0.72       
O        O      0.810150000000     0.433100000000     0.923186666667    -0.72       
O        O      0.802675000000     0.462950000000     0.994046666667    -0.72       
O        O      0.869775000000     0.441775000000     0.899416666667    -0.72       
O        O      0.858225000000     0.491125000000     0.680080000000    -0.72       
O        O      0.939850000000     0.316900000000     0.756520000000    -0.72       
O        O      0.947325000000     0.287050000000     0.827380000000    -0.72       
O        O      0.880225000000     0.308225000000     0.732750000000    -0.72       
O        O      0.891775000000     0.258875000000     0.846746666667    -0.72       
O        O      0.816900000000     0.310150000000     0.673186666667    -0.72       
O        O      0.787050000000     0.302675000000     0.744046666667    -0.72       
O        O      0.808225000000     0.369775000000     0.982750000000    -0.72       
O        O      0.758875000000     0.358225000000     0.763413333333    -0.72       
O        O      0.933100000000     0.439850000000     0.839853333333    -0.72       
O        O      0.962950000000     0.447325000000     0.910713333333    -0.72       
O        O      0.941775000000     0.380225000000     0.816083333333    -0.72       
O        O      0.991125000000     0.391775000000     0.930080000000    -0.72       
O        O      0.810150000000     0.683100000000     0.256520000000    -0.72       
O        O      0.802675000000     0.712950000000     0.327380000000    -0.72       
O        O      0.869775000000     0.691775000000     0.232750000000    -0.72       
O        O      0.858225000000     0.741125000000     0.013413333333    -0.72       
O        O      0.939850000000     0.566900000000     0.089853333333    -0.72       
O        O      0.947325000000     0.537050000000     0.160713333333    -0.72       
O        O      0.880225000000     0.558225000000     0.066083333333    -0.72       
O        O      0.891775000000     0.508875000000     0.180080000000    -0.72       
O        O      0.816900000000     0.560150000000     0.006520000000    -0.72       
O        O      0.787050000000     0.552675000000     0.077380000000    -0.72       
O        O      0.808225000000     0.619775000000     0.316083333333    -0.72       
O        O      0.758875000000     0.608225000000     0.096746666667    -0.72       
O        O      0.933100000000     0.689850000000     0.173186666667    -0.72       
O        O      0.962950000000     0.697325000000     0.244046666667    -0.72       
O        O      0.941775000000     0.630225000000     0.149416666667    -0.72       
O        O      0.991125000000     0.641775000000     0.263413333333    -0.72       
O        O      0.810150000000     0.683100000000     0.589853333333    -0.72       
O        O      0.802675000000     0.712950000000     0.660713333333    -0.72       
O        O      0.869775000000     0.691775000000     0.566083333333    -0.72       
O        O      0.858225000000     0.741125000000     0.346746666667    -0.72       
O        O      0.939850000000     0.566900000000     0.423186666667    -0.72       
O        O      0.947325000000     0.537050000000     0.494046666667    -0.72       
O        O      0.880225000000     0.558225000000     0.399416666667    -0.72       
O        O      0.891775000000     0.508875000000     0.513413333333    -0.72       
O        O      0.816900000000     0.560150000000     0.339853333333    -0.72       
O        O      0.787050000000     0.552675000000     0.410713333333    -0.72       
O        O      0.808225000000     0.619775000000     0.649416666667    -0.72       
O        O      0.758875000000     0.608225000000     0.430080000000    -0.72       
O        O      0.933100000000     0.689850000000     0.506520000000    -0.72       
O        O      0.962950000000     0.697325000000     0.577380000000    -0.72       
O        O      0.941775000000     0.630225000000     0.482750000000    -0.72       
O        O      0.991125000000     0.641775000000     0.596746666667    -0.72       
O        O      0.810150000000     0.683100000000     0.923186666667    -0.72       
O        O      0.802675000000     0.712950000000     0.994046666667    -0.72       
O        O      0.869775000000     0.691775000000     0.899416666667    -0.72       
O        O      0.858225000000     0.741125000000     0.680080000000    -0.72       
O        O      0.939850000000     0.566900000000     0.756520000000    -0.72       
O        O      0.947325000000     0.537050000000     0.827380000000    -0.72       
O        O      0.880225000000     0.558225000000     0.732750000000    -0.72       
O        O      0.891775000000     0.508875000000     0.846746666667    -0.72       
O        O      0.816900000000     0.560150000000     0.673186666667    -0.72       
O        O      0.787050000000     0.552675000000     0.744046666667    -0.72       
O        O      0.808225000000     0.619775000000     0.982750000000    -0.72       
O        O      0.758875000000     0.608225000000     0.763413333333    -0.72       
O        O      0.933100000000     0.689850000000     0.839853333333    -0.72       
O        O      0.962950000000     0.697325000000     0.910713333333    -0.72       
O        O      0.941775000000     0.630225000000     0.816083333333    -0.72       
O        O      0.991125000000     0.641775000000     0.930080000000    -0.72       
O        O      0.810150000000     0.933100000000     0.256520000000    -0.72       
O        O      0.802675000000     0.962950000000     0.327380000000    -0.72       
O        O      0.869775000000     0.941775000000     0.232750000000    -0.72       
O        O      0.858225000000     0.991125000000     0.013413333333    -0.72       
O        O      0.939850000000     0.816900000000     0.089853333333    -0.72       
O        O      0.947325000000     0.787050000000     0.160713333333    -0.72       
O        O      0.880225000000     0.808225000000     0.066083333333    -0.72       
O        O      0.891775000000     0.758875000000     0.180080000000    -0.72       
O        O      0.816900000000     0.810150000000     0.006520000000    -0.72       
O        O      0.787050000000     0.802675000000     0.077380000000    -0.72       
O        O      0.808225000000     0.869775000000     0.316083333333    -0.72       
O        O      0.758875000000     0.858225000000     0.096746666667    -0.72       
O        O      0.933100000000     0.939850000000     0.173186666667    -0.72       
O        O      0.962950000000     0.947325000000     0.244046666667    -0.72       
O        O      0.941775000000     0.880225000000     0.149416666667    -0.72       
O        O      0.991125000000     0.891775000000     0.263413333333    -0.72       
O        O      0.810150000000     0.933100000000     0.589853333333    -0.72       
O        O      0.802675000000     0.962950000000     0.660713333333    -0.72       
O        O      0.869775000000     0.941775000000     0.566083333333    -0.72       
O        O      0.858225000000     0.991125000000     0.346746666667    -0.72       
O        O      0.939850000000     0.816900000000     0.423186666667    -0.72       
O        O      0.947325000000     0.787050000000     0.494046666667    -0.72       
O        O      0.880225000000     0.808225000000     0.399416666667    -0.72       
O        O      0.891775000000     0.758875000000     0.513413333333    -0.72       
O        O      0.816900000000     0.810150000000     0.339853333333    -0.72       
O        O      0.787050000000     0.802675000000     0.410713333333    -0.72       
O        O      0.808225000000     0.869775000000     0.649416666667    -0.72       
O        O      0.758875000000     0.858225000000     0.430080000000    -0.72       
O        O      0.933100000000     0.939850000000     0.506520000000    -0.72       
O        O      0.962950000000     0.947325000000     0.577380000000    -0.72       
O        O      0.941775000000     0.880225000000     0.482750000000    -0.72       
O        O      0.991125000000     0.891775000000     0.596746666667    -0.72       
O        O      0.810150000000     0.933100000000     0.923186666667    -0.72       
O        O      0.802675000000     0.962950000000     0.994046666667    -0.72       
O        O      0.869775000000     0.941775000000     0.899416666667    -0.72       
O        O      0.858225000000     0.991125000000     0.680080000000    -0.72       
O        O      0.939850000000     0.816900000000     0.756520000000    -0.72       
O        O      0.947325000000     0.787050000000     0.827380000000    -0.72       
O        O      0.880225000000     0.808225000000     0.732750000000    -0.72       
O        O      0.891775000000     0.758875000000     0.846746666667    -0.72       
O        O      0.816900000000     0.810150000000     0.673186666667    -0.72       
O        O      0.787050000000     0.802675000000     0.744046666667    -0.72       
O        O      0.808225000000     0.869775000000     0.982750000000    -0.72       
O        O      0.758875000000     0.858225000000     0.763413333333    -0.72       
O        O      0.933100000000     0.939850000000     0.839853333333    -0.72       
O        O      0.962950000000     0.947325000000     0.910713333333    -0.72       
O        O      0.941775000000     0.880225000000     0.816083333333    -0.72       
O        O      0.991125000000     0.891775000000     0.930080000000    -0.72       


