data_FINQOK_clean_DDEC

_audit_creation_method RASPA-1.0
_audit_creation_date 2025-9-8
_audit_author_name ''

_cell_length_a    36.126
_cell_length_b    41.901
_cell_length_c    45.508
_cell_angle_alpha 95.802
_cell_angle_beta  105.211
_cell_angle_gamma 104.118
_cell_volume      63454

_symmetry_cell_setting          triclinic
_symmetry_space_group_name_Hall 'P 1'
_symmetry_space_group_name_H-M  'P 1'
_symmetry_Int_Tables_number     1

_symmetry_equiv_pos_as_xyz 'x,y,z'

loop_
_atom_site_label
_atom_site_type_symbol
_atom_site_fract_x
_atom_site_fract_y
_atom_site_fract_z
_atom_site_charge
Ag1      Ag     0.228616666667     0.308266666667     0.029865000000     0.26505    
Ag2      Ag     0.004986666667     0.146903333333     0.290995000000     0.228176   
Ag3      Ag     0.118573333333     0.162043333333     0.322915000000     0.303031   
Ag4      Ag     0.299273333333     0.205963333333     0.337340000000     0.32127    
Ag5      Ag     0.271073333333     0.109823333333     0.216905000000     0.0889     
Ag6      Ag     0.157716666667     0.217300000000     0.401565000000     0.313659   
Ag7      Ag     0.104716666667     0.025066666667     0.470135000000     0.265058   
Ag8      Ag     0.115943333333     0.279200000000     0.250565000000     0.156584   
Ag9      Ag     0.214760000000     0.171290000000     0.177085000000     0.303042   
Ag10     Ag     0.217390000000     0.054133333333     0.249435000000     0.156553   
Ag11     Ag     0.034060000000     0.127370000000     0.162660000000     0.321275   
Ag12     Ag     0.062260000000     0.223510000000     0.283095000000     0.08886    
Ag13     Ag     0.175616666667     0.116033333333     0.098435000000     0.313657   
Ag14     Ag     0.328346666667     0.186430000000     0.209005000000     0.228157   
C1       C      0.072933333333     0.072900000000     0.072500000000    -0.181135   
C2       C      0.034800000000     0.007466666667     0.224300000000    -0.176868   
C3       C      0.044300000000     0.030833333333     0.249300000000     0.081093   
C4       C      0.089100000000     0.002733333333     0.274750000000     0.045853   
C5       C      0.072566666667     0.028700000000     0.276000000000    -0.16507    
C6       C      0.141033333333     0.075133333333     0.223700000000     0.028972   
C7       C      0.000100000000     0.084533333333     0.056250000000     0.09026    
C8       C      0.101600000000     0.126000000000     0.450050000000     0.077303   
C9       C      0.265966666667     0.079866666667     0.104650000000     0.026627   
C10      C      0.114000000000     0.092733333333     0.222000000000    -0.169136   
C11      C      0.271000000000     0.108766666667     0.128100000000     0.211218   
C12      C      0.045400000000     0.057733333333     0.045400000000     0.091889   
C13      C      0.133100000000     0.182833333333     0.472800000000     0.07639    
C14      C      0.307900000000     0.274666666667     0.249500000000     0.211824   
C15      C      0.283833333333     0.054900000000     0.112900000000    -0.197905   
C16      C      0.108766666667     0.179100000000     0.492900000000    -0.183294   
C17      C      0.052933333333     0.315266666667     0.224300000000     0.060952   
C18      C      0.093766666667     0.140633333333     0.244100000000     0.246002   
C19      C      0.161433333333     0.216100000000     0.475850000000     0.224085   
C20      C      0.063866666667     0.095600000000     0.092300000000     0.064127   
C21      C      0.121866666667     0.120333333333     0.243700000000     0.045894   
C22      C      0.240266666667     0.075166666667     0.075250000000    -0.203767   
C23      C      0.306633333333     0.232033333333     0.416200000000    -0.191879   
C24      C      0.211466666667     0.213000000000     0.256300000000     0.045938   
C25      C      0.059500000000     0.306633333333     0.409150000000     0.032759   
C26      C      0.192300000000     0.258200000000     0.276300000000     0.028979   
C27      C      0.333233333333     0.248800000000     0.443750000000     0.090277   
C28      C      0.204600000000     0.177500000000     0.049150000000    -0.195038   
C29      C      0.231733333333     0.207333333333     0.049950000000     0.077307   
C30      C      0.067366666667     0.253466666667     0.395350000000     0.026592   
C31      C      0.260400000000     0.260433333333     0.427500000000    -0.181134   
C32      C      0.219333333333     0.240600000000     0.278000000000    -0.169149   
C33      C      0.093066666667     0.258166666667     0.424750000000    -0.203759   
C34      C      0.287933333333     0.275600000000     0.454600000000     0.091889   
C35      C      0.200233333333     0.150500000000     0.027200000000     0.076392   
C36      C      0.238766666667     0.219166666667     0.378650000000     0.257615   
C37      C      0.025433333333     0.058666666667     0.250500000000     0.21184    
C38      C      0.224566666667     0.154233333333     0.007100000000    -0.183294   
C39      C      0.062333333333     0.224566666667     0.371900000000     0.21124    
C40      C      0.239566666667     0.192700000000     0.255900000000     0.245968   
C41      C      0.171900000000     0.117233333333     0.024150000000     0.224085   
C42      C      0.269466666667     0.237733333333     0.407700000000     0.064127   
C43      C      0.083266666667     0.149533333333     0.489900000000     0.083661   
C44      C      0.250066666667     0.183800000000     0.010100000000     0.08366    
C45      C      0.147400000000     0.219900000000     0.234700000000     0.050805   
C46      C      0.101500000000     0.287466666667     0.444850000000     0.052504   
C47      C      0.173766666667     0.202166666667     0.234750000000    -0.187546   
C48      C      0.049500000000     0.278433333333     0.387100000000    -0.19778    
C49      C      0.185933333333     0.113433333333     0.265300000000     0.050808   
C50      C      0.128733333333     0.155833333333     0.450850000000    -0.19503    
C51      C      0.159566666667     0.131166666667     0.265250000000    -0.187539   
C52      C      0.231833333333     0.045866666667     0.055150000000     0.052482   
C53      C      0.244233333333     0.330600000000     0.225250000000     0.045846   
C54      C      0.289033333333     0.302500000000     0.250700000000     0.081057   
C55      C      0.298533333333     0.325866666667     0.275700000000    -0.176853   
C56      C      0.260766666667     0.304633333333     0.224000000000    -0.165076   
C57      C      0.026700000000     0.101300000000     0.083800000000    -0.191865   
C58      C      0.094566666667     0.114166666667     0.121350000000     0.257611   
C59      C      0.273833333333     0.026700000000     0.090850000000     0.032851   
C60      C      0.280400000000     0.018066666667     0.275700000000     0.060936   
H1       H      0.301700000000     0.057166666667     0.132400000000     0.125237   
H2       H      0.143733333333     0.157700000000     0.437000000000     0.120407   
H3       H      0.099000000000     0.107400000000     0.435850000000     0.091833   
H4       H      0.097566666667     0.068366666667     0.078050000000     0.114408   
H5       H      0.090100000000     0.086033333333     0.206000000000     0.121024   
H6       H      0.228633333333     0.091866666667     0.069050000000     0.110295   
H7       H      0.051733333333     0.043333333333     0.031800000000     0.093441   
H8       H      0.110700000000     0.196966666667     0.007700000000     0.131496   
H9       H      0.285866666667     0.009966666667     0.096000000000     0.088586   
H10      H      0.211000000000     0.121066666667     0.279900000000     0.091129   
H11      H      0.214033333333     0.043000000000     0.035500000000     0.08775    
H12      H      0.166533333333     0.150700000000     0.279650000000     0.110197   
H13      H      0.308366666667     0.088233333333     0.050400000000     0.088551   
H14      H      0.020033333333     0.116300000000     0.096600000000     0.110467   
H15      H      0.286966666667     0.033566666667     0.293700000000     0.098092   
H16      H      0.317766666667     0.325000000000     0.293550000000     0.129394   
H17      H      0.225233333333     0.332200000000     0.207550000000     0.090096   
H18      H      0.067566666667     0.147166666667     0.003250000000     0.090135   
H19      H      0.134300000000     0.055366666667     0.209650000000     0.090479   
H20      H      0.253433333333     0.288933333333     0.206000000000     0.135392   
H21      H      0.108100000000     0.001133333333     0.292450000000     0.090094   
H22      H      0.079900000000     0.044400000000     0.294000000000     0.135394   
H23      H      0.199033333333     0.277966666667     0.290350000000     0.090476   
H24      H      0.024966666667     0.245100000000     0.449600000000     0.088554   
H25      H      0.189600000000     0.175633333333     0.063000000000     0.120408   
H26      H      0.234333333333     0.225933333333     0.064150000000     0.091833   
H27      H      0.235766666667     0.264966666667     0.421950000000     0.114408   
H28      H      0.104700000000     0.241466666667     0.430950000000     0.11029    
H29      H      0.281600000000     0.290000000000     0.468200000000     0.09344    
H30      H      0.031633333333     0.276166666667     0.367600000000     0.125221   
H31      H      0.243233333333     0.247300000000     0.294000000000     0.121027   
H32      H      0.265766666667     0.186166666667     0.496750000000     0.090135   
H33      H      0.122333333333     0.212266666667     0.220100000000     0.091127   
H34      H      0.119300000000     0.290333333333     0.464500000000     0.087742   
H35      H      0.166800000000     0.182633333333     0.220350000000     0.110198   
H36      H      0.047466666667     0.323366666667     0.404000000000     0.088591   
H37      H      0.313300000000     0.217033333333     0.403400000000     0.11047    
H38      H      0.046366666667     0.299766666667     0.206300000000     0.098093   
H39      H      0.222633333333     0.136366666667     0.492300000000     0.131494   
H40      H      0.015566666667     0.008333333333     0.206450000000     0.129396   
N1       N      0.183466666667     0.193933333333     0.344450000000    -0.03796    
N2       N      0.133733333333     0.074200000000     0.033250000000    -0.09307    
N3       N      0.267800000000     0.158700000000     0.239350000000    -0.015545   
N4       N      0.270433333333     0.192300000000     0.279700000000    -0.25648    
N5       N      0.199500000000     0.212200000000     0.373450000000    -0.234015   
N6       N      0.092666666667     0.210300000000     0.371650000000    -0.230092   
N7       N      0.247133333333     0.207000000000     0.353800000000    -0.227102   
N8       N      0.211733333333     0.190666666667     0.332450000000    -0.057932   
N9       N      0.078333333333     0.186500000000     0.346650000000    -0.06522    
N10      N      0.040666666667     0.186333333333     0.332550000000    -0.024584   
N11      N      0.287400000000     0.169866666667     0.268400000000    -0.048206   
N12      N      0.009500000000     0.101200000000     0.265500000000    -0.026603   
N13      N      0.329433333333     0.061966666667     0.225550000000    -0.287688   
N14      N      0.324500000000     0.270566666667     0.462750000000    -0.288935   
N15      N      0.079366666667     0.312633333333     0.249400000000    -0.167123   
N16      N      0.254833333333     0.210233333333     0.030600000000    -0.291049   
N17      N      0.158100000000     0.104333333333     0.046450000000    -0.222756   
N18      N      0.155766666667     0.248200000000     0.254950000000    -0.200086   
N19      N      0.030300000000     0.208900000000     0.347900000000    -0.201954   
N20      N      0.085333333333     0.311700000000     0.437500000000    -0.20554    
N21      N      0.034233333333     0.082233333333     0.274400000000    -0.306997   
N22      N      0.157700000000     0.095733333333     0.497600000000    -0.270598   
N23      N      0.238100000000     0.173100000000     0.230250000000    -0.237214   
N24      N      0.012166666667     0.244600000000     0.262900000000     0.003667   
N25      N      0.008833333333     0.062766666667     0.037250000000    -0.288936   
N26      N      0.175633333333     0.237600000000     0.002400000000    -0.270598   
N27      N      0.133866666667     0.069666666667     0.004150000000    -0.010338   
N28      N      0.248000000000     0.021633333333     0.062500000000    -0.205504   
N29      N      0.149866666667     0.139400000000     0.155550000000    -0.037964   
N30      N      0.133833333333     0.121133333333     0.126550000000    -0.234013   
N31      N      0.086200000000     0.126333333333     0.146200000000    -0.227102   
N32      N      0.240666666667     0.123033333333     0.128350000000    -0.230072   
N33      N      0.255000000000     0.146833333333     0.153350000000    -0.065232   
N34      N      0.062900000000     0.141033333333     0.220300000000    -0.256486   
N35      N      0.065533333333     0.174633333333     0.260650000000    -0.015533   
N36      N      0.199600000000     0.259133333333     0.466750000000    -0.093067   
N37      N      0.199466666667     0.263666666667     0.495850000000    -0.010333   
N38      N      0.121600000000     0.142666666667     0.167550000000    -0.057932   
N39      N      0.095233333333     0.160233333333     0.269750000000    -0.237216   
N40      N      0.323833333333     0.232133333333     0.234500000000    -0.026557   
N41      N      0.003900000000     0.271366666667     0.274450000000    -0.287662   
N42      N      0.253966666667     0.020700000000     0.250600000000    -0.167159   
N43      N      0.078500000000     0.123100000000     0.469400000000    -0.291048   
N44      N      0.175233333333     0.229000000000     0.453550000000    -0.222756   
N45      N      0.177566666667     0.085133333333     0.245050000000    -0.200097   
N46      N      0.303033333333     0.124433333333     0.152100000000    -0.201985   
N47      N      0.045933333333     0.163466666667     0.231600000000    -0.048208   
N48      N      0.299100000000     0.251100000000     0.225600000000    -0.307006   
N49      N      0.292666666667     0.147000000000     0.167450000000    -0.024541   
N50      N      0.321166666667     0.088733333333     0.237100000000     0.003744   
Ag1      Ag     0.228616666667     0.308266666667     0.529865000000     0.26505    
Ag2      Ag     0.004986666667     0.146903333333     0.790995000000     0.228176   
Ag3      Ag     0.118573333333     0.162043333333     0.822915000000     0.303031   
Ag4      Ag     0.299273333333     0.205963333333     0.837340000000     0.32127    
Ag5      Ag     0.271073333333     0.109823333333     0.716905000000     0.0889     
Ag6      Ag     0.157716666667     0.217300000000     0.901565000000     0.313659   
Ag7      Ag     0.104716666667     0.025066666667     0.970135000000     0.265058   
Ag8      Ag     0.115943333333     0.279200000000     0.750565000000     0.156584   
Ag9      Ag     0.214760000000     0.171290000000     0.677085000000     0.303042   
Ag10     Ag     0.217390000000     0.054133333333     0.749435000000     0.156553   
Ag11     Ag     0.034060000000     0.127370000000     0.662660000000     0.321275   
Ag12     Ag     0.062260000000     0.223510000000     0.783095000000     0.08886    
Ag13     Ag     0.175616666667     0.116033333333     0.598435000000     0.313657   
Ag14     Ag     0.328346666667     0.186430000000     0.709005000000     0.228157   
C1       C      0.072933333333     0.072900000000     0.572500000000    -0.181135   
C2       C      0.034800000000     0.007466666667     0.724300000000    -0.176868   
C3       C      0.044300000000     0.030833333333     0.749300000000     0.081093   
C4       C      0.089100000000     0.002733333333     0.774750000000     0.045853   
C5       C      0.072566666667     0.028700000000     0.776000000000    -0.16507    
C6       C      0.141033333333     0.075133333333     0.723700000000     0.028972   
C7       C      0.000100000000     0.084533333333     0.556250000000     0.09026    
C8       C      0.101600000000     0.126000000000     0.950050000000     0.077303   
C9       C      0.265966666667     0.079866666667     0.604650000000     0.026627   
C10      C      0.114000000000     0.092733333333     0.722000000000    -0.169136   
C11      C      0.271000000000     0.108766666667     0.628100000000     0.211218   
C12      C      0.045400000000     0.057733333333     0.545400000000     0.091889   
C13      C      0.133100000000     0.182833333333     0.972800000000     0.07639    
C14      C      0.307900000000     0.274666666667     0.749500000000     0.211824   
C15      C      0.283833333333     0.054900000000     0.612900000000    -0.197905   
C16      C      0.108766666667     0.179100000000     0.992900000000    -0.183294   
C17      C      0.052933333333     0.315266666667     0.724300000000     0.060952   
C18      C      0.093766666667     0.140633333333     0.744100000000     0.246002   
C19      C      0.161433333333     0.216100000000     0.975850000000     0.224085   
C20      C      0.063866666667     0.095600000000     0.592300000000     0.064127   
C21      C      0.121866666667     0.120333333333     0.743700000000     0.045894   
C22      C      0.240266666667     0.075166666667     0.575250000000    -0.203767   
C23      C      0.306633333333     0.232033333333     0.916200000000    -0.191879   
C24      C      0.211466666667     0.213000000000     0.756300000000     0.045938   
C25      C      0.059500000000     0.306633333333     0.909150000000     0.032759   
C26      C      0.192300000000     0.258200000000     0.776300000000     0.028979   
C27      C      0.333233333333     0.248800000000     0.943750000000     0.090277   
C28      C      0.204600000000     0.177500000000     0.549150000000    -0.195038   
C29      C      0.231733333333     0.207333333333     0.549950000000     0.077307   
C30      C      0.067366666667     0.253466666667     0.895350000000     0.026592   
C31      C      0.260400000000     0.260433333333     0.927500000000    -0.181134   
C32      C      0.219333333333     0.240600000000     0.778000000000    -0.169149   
C33      C      0.093066666667     0.258166666667     0.924750000000    -0.203759   
C34      C      0.287933333333     0.275600000000     0.954600000000     0.091889   
C35      C      0.200233333333     0.150500000000     0.527200000000     0.076392   
C36      C      0.238766666667     0.219166666667     0.878650000000     0.257615   
C37      C      0.025433333333     0.058666666667     0.750500000000     0.21184    
C38      C      0.224566666667     0.154233333333     0.507100000000    -0.183294   
C39      C      0.062333333333     0.224566666667     0.871900000000     0.21124    
C40      C      0.239566666667     0.192700000000     0.755900000000     0.245968   
C41      C      0.171900000000     0.117233333333     0.524150000000     0.224085   
C42      C      0.269466666667     0.237733333333     0.907700000000     0.064127   
C43      C      0.083266666667     0.149533333333     0.989900000000     0.083661   
C44      C      0.250066666667     0.183800000000     0.510100000000     0.08366    
C45      C      0.147400000000     0.219900000000     0.734700000000     0.050805   
C46      C      0.101500000000     0.287466666667     0.944850000000     0.052504   
C47      C      0.173766666667     0.202166666667     0.734750000000    -0.187546   
C48      C      0.049500000000     0.278433333333     0.887100000000    -0.19778    
C49      C      0.185933333333     0.113433333333     0.765300000000     0.050808   
C50      C      0.128733333333     0.155833333333     0.950850000000    -0.19503    
C51      C      0.159566666667     0.131166666667     0.765250000000    -0.187539   
C52      C      0.231833333333     0.045866666667     0.555150000000     0.052482   
C53      C      0.244233333333     0.330600000000     0.725250000000     0.045846   
C54      C      0.289033333333     0.302500000000     0.750700000000     0.081057   
C55      C      0.298533333333     0.325866666667     0.775700000000    -0.176853   
C56      C      0.260766666667     0.304633333333     0.724000000000    -0.165076   
C57      C      0.026700000000     0.101300000000     0.583800000000    -0.191865   
C58      C      0.094566666667     0.114166666667     0.621350000000     0.257611   
C59      C      0.273833333333     0.026700000000     0.590850000000     0.032851   
C60      C      0.280400000000     0.018066666667     0.775700000000     0.060936   
H1       H      0.301700000000     0.057166666667     0.632400000000     0.125237   
H2       H      0.143733333333     0.157700000000     0.937000000000     0.120407   
H3       H      0.099000000000     0.107400000000     0.935850000000     0.091833   
H4       H      0.097566666667     0.068366666667     0.578050000000     0.114408   
H5       H      0.090100000000     0.086033333333     0.706000000000     0.121024   
H6       H      0.228633333333     0.091866666667     0.569050000000     0.110295   
H7       H      0.051733333333     0.043333333333     0.531800000000     0.093441   
H8       H      0.110700000000     0.196966666667     0.507700000000     0.131496   
H9       H      0.285866666667     0.009966666667     0.596000000000     0.088586   
H10      H      0.211000000000     0.121066666667     0.779900000000     0.091129   
H11      H      0.214033333333     0.043000000000     0.535500000000     0.08775    
H12      H      0.166533333333     0.150700000000     0.779650000000     0.110197   
H13      H      0.308366666667     0.088233333333     0.550400000000     0.088551   
H14      H      0.020033333333     0.116300000000     0.596600000000     0.110467   
H15      H      0.286966666667     0.033566666667     0.793700000000     0.098092   
H16      H      0.317766666667     0.325000000000     0.793550000000     0.129394   
H17      H      0.225233333333     0.332200000000     0.707550000000     0.090096   
H18      H      0.067566666667     0.147166666667     0.503250000000     0.090135   
H19      H      0.134300000000     0.055366666667     0.709650000000     0.090479   
H20      H      0.253433333333     0.288933333333     0.706000000000     0.135392   
H21      H      0.108100000000     0.001133333333     0.792450000000     0.090094   
H22      H      0.079900000000     0.044400000000     0.794000000000     0.135394   
H23      H      0.199033333333     0.277966666667     0.790350000000     0.090476   
H24      H      0.024966666667     0.245100000000     0.949600000000     0.088554   
H25      H      0.189600000000     0.175633333333     0.563000000000     0.120408   
H26      H      0.234333333333     0.225933333333     0.564150000000     0.091833   
H27      H      0.235766666667     0.264966666667     0.921950000000     0.114408   
H28      H      0.104700000000     0.241466666667     0.930950000000     0.11029    
H29      H      0.281600000000     0.290000000000     0.968200000000     0.09344    
H30      H      0.031633333333     0.276166666667     0.867600000000     0.125221   
H31      H      0.243233333333     0.247300000000     0.794000000000     0.121027   
H32      H      0.265766666667     0.186166666667     0.996750000000     0.090135   
H33      H      0.122333333333     0.212266666667     0.720100000000     0.091127   
H34      H      0.119300000000     0.290333333333     0.964500000000     0.087742   
H35      H      0.166800000000     0.182633333333     0.720350000000     0.110198   
H36      H      0.047466666667     0.323366666667     0.904000000000     0.088591   
H37      H      0.313300000000     0.217033333333     0.903400000000     0.11047    
H38      H      0.046366666667     0.299766666667     0.706300000000     0.098093   
H39      H      0.222633333333     0.136366666667     0.992300000000     0.131494   
H40      H      0.015566666667     0.008333333333     0.706450000000     0.129396   
N1       N      0.183466666667     0.193933333333     0.844450000000    -0.03796    
N2       N      0.133733333333     0.074200000000     0.533250000000    -0.09307    
N3       N      0.267800000000     0.158700000000     0.739350000000    -0.015545   
N4       N      0.270433333333     0.192300000000     0.779700000000    -0.25648    
N5       N      0.199500000000     0.212200000000     0.873450000000    -0.234015   
N6       N      0.092666666667     0.210300000000     0.871650000000    -0.230092   
N7       N      0.247133333333     0.207000000000     0.853800000000    -0.227102   
N8       N      0.211733333333     0.190666666667     0.832450000000    -0.057932   
N9       N      0.078333333333     0.186500000000     0.846650000000    -0.06522    
N10      N      0.040666666667     0.186333333333     0.832550000000    -0.024584   
N11      N      0.287400000000     0.169866666667     0.768400000000    -0.048206   
N12      N      0.009500000000     0.101200000000     0.765500000000    -0.026603   
N13      N      0.329433333333     0.061966666667     0.725550000000    -0.287688   
N14      N      0.324500000000     0.270566666667     0.962750000000    -0.288935   
N15      N      0.079366666667     0.312633333333     0.749400000000    -0.167123   
N16      N      0.254833333333     0.210233333333     0.530600000000    -0.291049   
N17      N      0.158100000000     0.104333333333     0.546450000000    -0.222756   
N18      N      0.155766666667     0.248200000000     0.754950000000    -0.200086   
N19      N      0.030300000000     0.208900000000     0.847900000000    -0.201954   
N20      N      0.085333333333     0.311700000000     0.937500000000    -0.20554    
N21      N      0.034233333333     0.082233333333     0.774400000000    -0.306997   
N22      N      0.157700000000     0.095733333333     0.997600000000    -0.270598   
N23      N      0.238100000000     0.173100000000     0.730250000000    -0.237214   
N24      N      0.012166666667     0.244600000000     0.762900000000     0.003667   
N25      N      0.008833333333     0.062766666667     0.537250000000    -0.288936   
N26      N      0.175633333333     0.237600000000     0.502400000000    -0.270598   
N27      N      0.133866666667     0.069666666667     0.504150000000    -0.010338   
N28      N      0.248000000000     0.021633333333     0.562500000000    -0.205504   
N29      N      0.149866666667     0.139400000000     0.655550000000    -0.037964   
N30      N      0.133833333333     0.121133333333     0.626550000000    -0.234013   
N31      N      0.086200000000     0.126333333333     0.646200000000    -0.227102   
N32      N      0.240666666667     0.123033333333     0.628350000000    -0.230072   
N33      N      0.255000000000     0.146833333333     0.653350000000    -0.065232   
N34      N      0.062900000000     0.141033333333     0.720300000000    -0.256486   
N35      N      0.065533333333     0.174633333333     0.760650000000    -0.015533   
N36      N      0.199600000000     0.259133333333     0.966750000000    -0.093067   
N37      N      0.199466666667     0.263666666667     0.995850000000    -0.010333   
N38      N      0.121600000000     0.142666666667     0.667550000000    -0.057932   
N39      N      0.095233333333     0.160233333333     0.769750000000    -0.237216   
N40      N      0.323833333333     0.232133333333     0.734500000000    -0.026557   
N41      N      0.003900000000     0.271366666667     0.774450000000    -0.287662   
N42      N      0.253966666667     0.020700000000     0.750600000000    -0.167159   
N43      N      0.078500000000     0.123100000000     0.969400000000    -0.291048   
N44      N      0.175233333333     0.229000000000     0.953550000000    -0.222756   
N45      N      0.177566666667     0.085133333333     0.745050000000    -0.200097   
N46      N      0.303033333333     0.124433333333     0.652100000000    -0.201985   
N47      N      0.045933333333     0.163466666667     0.731600000000    -0.048208   
N48      N      0.299100000000     0.251100000000     0.725600000000    -0.307006   
N49      N      0.292666666667     0.147000000000     0.667450000000    -0.024541   
N50      N      0.321166666667     0.088733333333     0.737100000000     0.003744   
Ag1      Ag     0.228616666667     0.641600000000     0.029865000000     0.26505    
Ag2      Ag     0.004986666667     0.480236666667     0.290995000000     0.228176   
Ag3      Ag     0.118573333333     0.495376666667     0.322915000000     0.303031   
Ag4      Ag     0.299273333333     0.539296666667     0.337340000000     0.32127    
Ag5      Ag     0.271073333333     0.443156666667     0.216905000000     0.0889     
Ag6      Ag     0.157716666667     0.550633333333     0.401565000000     0.313659   
Ag7      Ag     0.104716666667     0.358400000000     0.470135000000     0.265058   
Ag8      Ag     0.115943333333     0.612533333333     0.250565000000     0.156584   
Ag9      Ag     0.214760000000     0.504623333333     0.177085000000     0.303042   
Ag10     Ag     0.217390000000     0.387466666667     0.249435000000     0.156553   
Ag11     Ag     0.034060000000     0.460703333333     0.162660000000     0.321275   
Ag12     Ag     0.062260000000     0.556843333333     0.283095000000     0.08886    
Ag13     Ag     0.175616666667     0.449366666667     0.098435000000     0.313657   
Ag14     Ag     0.328346666667     0.519763333333     0.209005000000     0.228157   
C1       C      0.072933333333     0.406233333333     0.072500000000    -0.181135   
C2       C      0.034800000000     0.340800000000     0.224300000000    -0.176868   
C3       C      0.044300000000     0.364166666667     0.249300000000     0.081093   
C4       C      0.089100000000     0.336066666667     0.274750000000     0.045853   
C5       C      0.072566666667     0.362033333333     0.276000000000    -0.16507    
C6       C      0.141033333333     0.408466666667     0.223700000000     0.028972   
C7       C      0.000100000000     0.417866666667     0.056250000000     0.09026    
C8       C      0.101600000000     0.459333333333     0.450050000000     0.077303   
C9       C      0.265966666667     0.413200000000     0.104650000000     0.026627   
C10      C      0.114000000000     0.426066666667     0.222000000000    -0.169136   
C11      C      0.271000000000     0.442100000000     0.128100000000     0.211218   
C12      C      0.045400000000     0.391066666667     0.045400000000     0.091889   
C13      C      0.133100000000     0.516166666667     0.472800000000     0.07639    
C14      C      0.307900000000     0.608000000000     0.249500000000     0.211824   
C15      C      0.283833333333     0.388233333333     0.112900000000    -0.197905   
C16      C      0.108766666667     0.512433333333     0.492900000000    -0.183294   
C17      C      0.052933333333     0.648600000000     0.224300000000     0.060952   
C18      C      0.093766666667     0.473966666667     0.244100000000     0.246002   
C19      C      0.161433333333     0.549433333333     0.475850000000     0.224085   
C20      C      0.063866666667     0.428933333333     0.092300000000     0.064127   
C21      C      0.121866666667     0.453666666667     0.243700000000     0.045894   
C22      C      0.240266666667     0.408500000000     0.075250000000    -0.203767   
C23      C      0.306633333333     0.565366666667     0.416200000000    -0.191879   
C24      C      0.211466666667     0.546333333333     0.256300000000     0.045938   
C25      C      0.059500000000     0.639966666667     0.409150000000     0.032759   
C26      C      0.192300000000     0.591533333333     0.276300000000     0.028979   
C27      C      0.333233333333     0.582133333333     0.443750000000     0.090277   
C28      C      0.204600000000     0.510833333333     0.049150000000    -0.195038   
C29      C      0.231733333333     0.540666666667     0.049950000000     0.077307   
C30      C      0.067366666667     0.586800000000     0.395350000000     0.026592   
C31      C      0.260400000000     0.593766666667     0.427500000000    -0.181134   
C32      C      0.219333333333     0.573933333333     0.278000000000    -0.169149   
C33      C      0.093066666667     0.591500000000     0.424750000000    -0.203759   
C34      C      0.287933333333     0.608933333333     0.454600000000     0.091889   
C35      C      0.200233333333     0.483833333333     0.027200000000     0.076392   
C36      C      0.238766666667     0.552500000000     0.378650000000     0.257615   
C37      C      0.025433333333     0.392000000000     0.250500000000     0.21184    
C38      C      0.224566666667     0.487566666667     0.007100000000    -0.183294   
C39      C      0.062333333333     0.557900000000     0.371900000000     0.21124    
C40      C      0.239566666667     0.526033333333     0.255900000000     0.245968   
C41      C      0.171900000000     0.450566666667     0.024150000000     0.224085   
C42      C      0.269466666667     0.571066666667     0.407700000000     0.064127   
C43      C      0.083266666667     0.482866666667     0.489900000000     0.083661   
C44      C      0.250066666667     0.517133333333     0.010100000000     0.08366    
C45      C      0.147400000000     0.553233333333     0.234700000000     0.050805   
C46      C      0.101500000000     0.620800000000     0.444850000000     0.052504   
C47      C      0.173766666667     0.535500000000     0.234750000000    -0.187546   
C48      C      0.049500000000     0.611766666667     0.387100000000    -0.19778    
C49      C      0.185933333333     0.446766666667     0.265300000000     0.050808   
C50      C      0.128733333333     0.489166666667     0.450850000000    -0.19503    
C51      C      0.159566666667     0.464500000000     0.265250000000    -0.187539   
C52      C      0.231833333333     0.379200000000     0.055150000000     0.052482   
C53      C      0.244233333333     0.663933333333     0.225250000000     0.045846   
C54      C      0.289033333333     0.635833333333     0.250700000000     0.081057   
C55      C      0.298533333333     0.659200000000     0.275700000000    -0.176853   
C56      C      0.260766666667     0.637966666667     0.224000000000    -0.165076   
C57      C      0.026700000000     0.434633333333     0.083800000000    -0.191865   
C58      C      0.094566666667     0.447500000000     0.121350000000     0.257611   
C59      C      0.273833333333     0.360033333333     0.090850000000     0.032851   
C60      C      0.280400000000     0.351400000000     0.275700000000     0.060936   
H1       H      0.301700000000     0.390500000000     0.132400000000     0.125237   
H2       H      0.143733333333     0.491033333333     0.437000000000     0.120407   
H3       H      0.099000000000     0.440733333333     0.435850000000     0.091833   
H4       H      0.097566666667     0.401700000000     0.078050000000     0.114408   
H5       H      0.090100000000     0.419366666667     0.206000000000     0.121024   
H6       H      0.228633333333     0.425200000000     0.069050000000     0.110295   
H7       H      0.051733333333     0.376666666667     0.031800000000     0.093441   
H8       H      0.110700000000     0.530300000000     0.007700000000     0.131496   
H9       H      0.285866666667     0.343300000000     0.096000000000     0.088586   
H10      H      0.211000000000     0.454400000000     0.279900000000     0.091129   
H11      H      0.214033333333     0.376333333333     0.035500000000     0.08775    
H12      H      0.166533333333     0.484033333333     0.279650000000     0.110197   
H13      H      0.308366666667     0.421566666667     0.050400000000     0.088551   
H14      H      0.020033333333     0.449633333333     0.096600000000     0.110467   
H15      H      0.286966666667     0.366900000000     0.293700000000     0.098092   
H16      H      0.317766666667     0.658333333333     0.293550000000     0.129394   
H17      H      0.225233333333     0.665533333333     0.207550000000     0.090096   
H18      H      0.067566666667     0.480500000000     0.003250000000     0.090135   
H19      H      0.134300000000     0.388700000000     0.209650000000     0.090479   
H20      H      0.253433333333     0.622266666667     0.206000000000     0.135392   
H21      H      0.108100000000     0.334466666667     0.292450000000     0.090094   
H22      H      0.079900000000     0.377733333333     0.294000000000     0.135394   
H23      H      0.199033333333     0.611300000000     0.290350000000     0.090476   
H24      H      0.024966666667     0.578433333333     0.449600000000     0.088554   
H25      H      0.189600000000     0.508966666667     0.063000000000     0.120408   
H26      H      0.234333333333     0.559266666667     0.064150000000     0.091833   
H27      H      0.235766666667     0.598300000000     0.421950000000     0.114408   
H28      H      0.104700000000     0.574800000000     0.430950000000     0.11029    
H29      H      0.281600000000     0.623333333333     0.468200000000     0.09344    
H30      H      0.031633333333     0.609500000000     0.367600000000     0.125221   
H31      H      0.243233333333     0.580633333333     0.294000000000     0.121027   
H32      H      0.265766666667     0.519500000000     0.496750000000     0.090135   
H33      H      0.122333333333     0.545600000000     0.220100000000     0.091127   
H34      H      0.119300000000     0.623666666667     0.464500000000     0.087742   
H35      H      0.166800000000     0.515966666667     0.220350000000     0.110198   
H36      H      0.047466666667     0.656700000000     0.404000000000     0.088591   
H37      H      0.313300000000     0.550366666667     0.403400000000     0.11047    
H38      H      0.046366666667     0.633100000000     0.206300000000     0.098093   
H39      H      0.222633333333     0.469700000000     0.492300000000     0.131494   
H40      H      0.015566666667     0.341666666667     0.206450000000     0.129396   
N1       N      0.183466666667     0.527266666667     0.344450000000    -0.03796    
N2       N      0.133733333333     0.407533333333     0.033250000000    -0.09307    
N3       N      0.267800000000     0.492033333333     0.239350000000    -0.015545   
N4       N      0.270433333333     0.525633333333     0.279700000000    -0.25648    
N5       N      0.199500000000     0.545533333333     0.373450000000    -0.234015   
N6       N      0.092666666667     0.543633333333     0.371650000000    -0.230092   
N7       N      0.247133333333     0.540333333333     0.353800000000    -0.227102   
N8       N      0.211733333333     0.524000000000     0.332450000000    -0.057932   
N9       N      0.078333333333     0.519833333333     0.346650000000    -0.06522    
N10      N      0.040666666667     0.519666666667     0.332550000000    -0.024584   
N11      N      0.287400000000     0.503200000000     0.268400000000    -0.048206   
N12      N      0.009500000000     0.434533333333     0.265500000000    -0.026603   
N13      N      0.329433333333     0.395300000000     0.225550000000    -0.287688   
N14      N      0.324500000000     0.603900000000     0.462750000000    -0.288935   
N15      N      0.079366666667     0.645966666667     0.249400000000    -0.167123   
N16      N      0.254833333333     0.543566666667     0.030600000000    -0.291049   
N17      N      0.158100000000     0.437666666667     0.046450000000    -0.222756   
N18      N      0.155766666667     0.581533333333     0.254950000000    -0.200086   
N19      N      0.030300000000     0.542233333333     0.347900000000    -0.201954   
N20      N      0.085333333333     0.645033333333     0.437500000000    -0.20554    
N21      N      0.034233333333     0.415566666667     0.274400000000    -0.306997   
N22      N      0.157700000000     0.429066666667     0.497600000000    -0.270598   
N23      N      0.238100000000     0.506433333333     0.230250000000    -0.237214   
N24      N      0.012166666667     0.577933333333     0.262900000000     0.003667   
N25      N      0.008833333333     0.396100000000     0.037250000000    -0.288936   
N26      N      0.175633333333     0.570933333333     0.002400000000    -0.270598   
N27      N      0.133866666667     0.403000000000     0.004150000000    -0.010338   
N28      N      0.248000000000     0.354966666667     0.062500000000    -0.205504   
N29      N      0.149866666667     0.472733333333     0.155550000000    -0.037964   
N30      N      0.133833333333     0.454466666667     0.126550000000    -0.234013   
N31      N      0.086200000000     0.459666666667     0.146200000000    -0.227102   
N32      N      0.240666666667     0.456366666667     0.128350000000    -0.230072   
N33      N      0.255000000000     0.480166666667     0.153350000000    -0.065232   
N34      N      0.062900000000     0.474366666667     0.220300000000    -0.256486   
N35      N      0.065533333333     0.507966666667     0.260650000000    -0.015533   
N36      N      0.199600000000     0.592466666667     0.466750000000    -0.093067   
N37      N      0.199466666667     0.597000000000     0.495850000000    -0.010333   
N38      N      0.121600000000     0.476000000000     0.167550000000    -0.057932   
N39      N      0.095233333333     0.493566666667     0.269750000000    -0.237216   
N40      N      0.323833333333     0.565466666667     0.234500000000    -0.026557   
N41      N      0.003900000000     0.604700000000     0.274450000000    -0.287662   
N42      N      0.253966666667     0.354033333333     0.250600000000    -0.167159   
N43      N      0.078500000000     0.456433333333     0.469400000000    -0.291048   
N44      N      0.175233333333     0.562333333333     0.453550000000    -0.222756   
N45      N      0.177566666667     0.418466666667     0.245050000000    -0.200097   
N46      N      0.303033333333     0.457766666667     0.152100000000    -0.201985   
N47      N      0.045933333333     0.496800000000     0.231600000000    -0.048208   
N48      N      0.299100000000     0.584433333333     0.225600000000    -0.307006   
N49      N      0.292666666667     0.480333333333     0.167450000000    -0.024541   
N50      N      0.321166666667     0.422066666667     0.237100000000     0.003744   
Ag1      Ag     0.228616666667     0.641600000000     0.529865000000     0.26505    
Ag2      Ag     0.004986666667     0.480236666667     0.790995000000     0.228176   
Ag3      Ag     0.118573333333     0.495376666667     0.822915000000     0.303031   
Ag4      Ag     0.299273333333     0.539296666667     0.837340000000     0.32127    
Ag5      Ag     0.271073333333     0.443156666667     0.716905000000     0.0889     
Ag6      Ag     0.157716666667     0.550633333333     0.901565000000     0.313659   
Ag7      Ag     0.104716666667     0.358400000000     0.970135000000     0.265058   
Ag8      Ag     0.115943333333     0.612533333333     0.750565000000     0.156584   
Ag9      Ag     0.214760000000     0.504623333333     0.677085000000     0.303042   
Ag10     Ag     0.217390000000     0.387466666667     0.749435000000     0.156553   
Ag11     Ag     0.034060000000     0.460703333333     0.662660000000     0.321275   
Ag12     Ag     0.062260000000     0.556843333333     0.783095000000     0.08886    
Ag13     Ag     0.175616666667     0.449366666667     0.598435000000     0.313657   
Ag14     Ag     0.328346666667     0.519763333333     0.709005000000     0.228157   
C1       C      0.072933333333     0.406233333333     0.572500000000    -0.181135   
C2       C      0.034800000000     0.340800000000     0.724300000000    -0.176868   
C3       C      0.044300000000     0.364166666667     0.749300000000     0.081093   
C4       C      0.089100000000     0.336066666667     0.774750000000     0.045853   
C5       C      0.072566666667     0.362033333333     0.776000000000    -0.16507    
C6       C      0.141033333333     0.408466666667     0.723700000000     0.028972   
C7       C      0.000100000000     0.417866666667     0.556250000000     0.09026    
C8       C      0.101600000000     0.459333333333     0.950050000000     0.077303   
C9       C      0.265966666667     0.413200000000     0.604650000000     0.026627   
C10      C      0.114000000000     0.426066666667     0.722000000000    -0.169136   
C11      C      0.271000000000     0.442100000000     0.628100000000     0.211218   
C12      C      0.045400000000     0.391066666667     0.545400000000     0.091889   
C13      C      0.133100000000     0.516166666667     0.972800000000     0.07639    
C14      C      0.307900000000     0.608000000000     0.749500000000     0.211824   
C15      C      0.283833333333     0.388233333333     0.612900000000    -0.197905   
C16      C      0.108766666667     0.512433333333     0.992900000000    -0.183294   
C17      C      0.052933333333     0.648600000000     0.724300000000     0.060952   
C18      C      0.093766666667     0.473966666667     0.744100000000     0.246002   
C19      C      0.161433333333     0.549433333333     0.975850000000     0.224085   
C20      C      0.063866666667     0.428933333333     0.592300000000     0.064127   
C21      C      0.121866666667     0.453666666667     0.743700000000     0.045894   
C22      C      0.240266666667     0.408500000000     0.575250000000    -0.203767   
C23      C      0.306633333333     0.565366666667     0.916200000000    -0.191879   
C24      C      0.211466666667     0.546333333333     0.756300000000     0.045938   
C25      C      0.059500000000     0.639966666667     0.909150000000     0.032759   
C26      C      0.192300000000     0.591533333333     0.776300000000     0.028979   
C27      C      0.333233333333     0.582133333333     0.943750000000     0.090277   
C28      C      0.204600000000     0.510833333333     0.549150000000    -0.195038   
C29      C      0.231733333333     0.540666666667     0.549950000000     0.077307   
C30      C      0.067366666667     0.586800000000     0.895350000000     0.026592   
C31      C      0.260400000000     0.593766666667     0.927500000000    -0.181134   
C32      C      0.219333333333     0.573933333333     0.778000000000    -0.169149   
C33      C      0.093066666667     0.591500000000     0.924750000000    -0.203759   
C34      C      0.287933333333     0.608933333333     0.954600000000     0.091889   
C35      C      0.200233333333     0.483833333333     0.527200000000     0.076392   
C36      C      0.238766666667     0.552500000000     0.878650000000     0.257615   
C37      C      0.025433333333     0.392000000000     0.750500000000     0.21184    
C38      C      0.224566666667     0.487566666667     0.507100000000    -0.183294   
C39      C      0.062333333333     0.557900000000     0.871900000000     0.21124    
C40      C      0.239566666667     0.526033333333     0.755900000000     0.245968   
C41      C      0.171900000000     0.450566666667     0.524150000000     0.224085   
C42      C      0.269466666667     0.571066666667     0.907700000000     0.064127   
C43      C      0.083266666667     0.482866666667     0.989900000000     0.083661   
C44      C      0.250066666667     0.517133333333     0.510100000000     0.08366    
C45      C      0.147400000000     0.553233333333     0.734700000000     0.050805   
C46      C      0.101500000000     0.620800000000     0.944850000000     0.052504   
C47      C      0.173766666667     0.535500000000     0.734750000000    -0.187546   
C48      C      0.049500000000     0.611766666667     0.887100000000    -0.19778    
C49      C      0.185933333333     0.446766666667     0.765300000000     0.050808   
C50      C      0.128733333333     0.489166666667     0.950850000000    -0.19503    
C51      C      0.159566666667     0.464500000000     0.765250000000    -0.187539   
C52      C      0.231833333333     0.379200000000     0.555150000000     0.052482   
C53      C      0.244233333333     0.663933333333     0.725250000000     0.045846   
C54      C      0.289033333333     0.635833333333     0.750700000000     0.081057   
C55      C      0.298533333333     0.659200000000     0.775700000000    -0.176853   
C56      C      0.260766666667     0.637966666667     0.724000000000    -0.165076   
C57      C      0.026700000000     0.434633333333     0.583800000000    -0.191865   
C58      C      0.094566666667     0.447500000000     0.621350000000     0.257611   
C59      C      0.273833333333     0.360033333333     0.590850000000     0.032851   
C60      C      0.280400000000     0.351400000000     0.775700000000     0.060936   
H1       H      0.301700000000     0.390500000000     0.632400000000     0.125237   
H2       H      0.143733333333     0.491033333333     0.937000000000     0.120407   
H3       H      0.099000000000     0.440733333333     0.935850000000     0.091833   
H4       H      0.097566666667     0.401700000000     0.578050000000     0.114408   
H5       H      0.090100000000     0.419366666667     0.706000000000     0.121024   
H6       H      0.228633333333     0.425200000000     0.569050000000     0.110295   
H7       H      0.051733333333     0.376666666667     0.531800000000     0.093441   
H8       H      0.110700000000     0.530300000000     0.507700000000     0.131496   
H9       H      0.285866666667     0.343300000000     0.596000000000     0.088586   
H10      H      0.211000000000     0.454400000000     0.779900000000     0.091129   
H11      H      0.214033333333     0.376333333333     0.535500000000     0.08775    
H12      H      0.166533333333     0.484033333333     0.779650000000     0.110197   
H13      H      0.308366666667     0.421566666667     0.550400000000     0.088551   
H14      H      0.020033333333     0.449633333333     0.596600000000     0.110467   
H15      H      0.286966666667     0.366900000000     0.793700000000     0.098092   
H16      H      0.317766666667     0.658333333333     0.793550000000     0.129394   
H17      H      0.225233333333     0.665533333333     0.707550000000     0.090096   
H18      H      0.067566666667     0.480500000000     0.503250000000     0.090135   
H19      H      0.134300000000     0.388700000000     0.709650000000     0.090479   
H20      H      0.253433333333     0.622266666667     0.706000000000     0.135392   
H21      H      0.108100000000     0.334466666667     0.792450000000     0.090094   
H22      H      0.079900000000     0.377733333333     0.794000000000     0.135394   
H23      H      0.199033333333     0.611300000000     0.790350000000     0.090476   
H24      H      0.024966666667     0.578433333333     0.949600000000     0.088554   
H25      H      0.189600000000     0.508966666667     0.563000000000     0.120408   
H26      H      0.234333333333     0.559266666667     0.564150000000     0.091833   
H27      H      0.235766666667     0.598300000000     0.921950000000     0.114408   
H28      H      0.104700000000     0.574800000000     0.930950000000     0.11029    
H29      H      0.281600000000     0.623333333333     0.968200000000     0.09344    
H30      H      0.031633333333     0.609500000000     0.867600000000     0.125221   
H31      H      0.243233333333     0.580633333333     0.794000000000     0.121027   
H32      H      0.265766666667     0.519500000000     0.996750000000     0.090135   
H33      H      0.122333333333     0.545600000000     0.720100000000     0.091127   
H34      H      0.119300000000     0.623666666667     0.964500000000     0.087742   
H35      H      0.166800000000     0.515966666667     0.720350000000     0.110198   
H36      H      0.047466666667     0.656700000000     0.904000000000     0.088591   
H37      H      0.313300000000     0.550366666667     0.903400000000     0.11047    
H38      H      0.046366666667     0.633100000000     0.706300000000     0.098093   
H39      H      0.222633333333     0.469700000000     0.992300000000     0.131494   
H40      H      0.015566666667     0.341666666667     0.706450000000     0.129396   
N1       N      0.183466666667     0.527266666667     0.844450000000    -0.03796    
N2       N      0.133733333333     0.407533333333     0.533250000000    -0.09307    
N3       N      0.267800000000     0.492033333333     0.739350000000    -0.015545   
N4       N      0.270433333333     0.525633333333     0.779700000000    -0.25648    
N5       N      0.199500000000     0.545533333333     0.873450000000    -0.234015   
N6       N      0.092666666667     0.543633333333     0.871650000000    -0.230092   
N7       N      0.247133333333     0.540333333333     0.853800000000    -0.227102   
N8       N      0.211733333333     0.524000000000     0.832450000000    -0.057932   
N9       N      0.078333333333     0.519833333333     0.846650000000    -0.06522    
N10      N      0.040666666667     0.519666666667     0.832550000000    -0.024584   
N11      N      0.287400000000     0.503200000000     0.768400000000    -0.048206   
N12      N      0.009500000000     0.434533333333     0.765500000000    -0.026603   
N13      N      0.329433333333     0.395300000000     0.725550000000    -0.287688   
N14      N      0.324500000000     0.603900000000     0.962750000000    -0.288935   
N15      N      0.079366666667     0.645966666667     0.749400000000    -0.167123   
N16      N      0.254833333333     0.543566666667     0.530600000000    -0.291049   
N17      N      0.158100000000     0.437666666667     0.546450000000    -0.222756   
N18      N      0.155766666667     0.581533333333     0.754950000000    -0.200086   
N19      N      0.030300000000     0.542233333333     0.847900000000    -0.201954   
N20      N      0.085333333333     0.645033333333     0.937500000000    -0.20554    
N21      N      0.034233333333     0.415566666667     0.774400000000    -0.306997   
N22      N      0.157700000000     0.429066666667     0.997600000000    -0.270598   
N23      N      0.238100000000     0.506433333333     0.730250000000    -0.237214   
N24      N      0.012166666667     0.577933333333     0.762900000000     0.003667   
N25      N      0.008833333333     0.396100000000     0.537250000000    -0.288936   
N26      N      0.175633333333     0.570933333333     0.502400000000    -0.270598   
N27      N      0.133866666667     0.403000000000     0.504150000000    -0.010338   
N28      N      0.248000000000     0.354966666667     0.562500000000    -0.205504   
N29      N      0.149866666667     0.472733333333     0.655550000000    -0.037964   
N30      N      0.133833333333     0.454466666667     0.626550000000    -0.234013   
N31      N      0.086200000000     0.459666666667     0.646200000000    -0.227102   
N32      N      0.240666666667     0.456366666667     0.628350000000    -0.230072   
N33      N      0.255000000000     0.480166666667     0.653350000000    -0.065232   
N34      N      0.062900000000     0.474366666667     0.720300000000    -0.256486   
N35      N      0.065533333333     0.507966666667     0.760650000000    -0.015533   
N36      N      0.199600000000     0.592466666667     0.966750000000    -0.093067   
N37      N      0.199466666667     0.597000000000     0.995850000000    -0.010333   
N38      N      0.121600000000     0.476000000000     0.667550000000    -0.057932   
N39      N      0.095233333333     0.493566666667     0.769750000000    -0.237216   
N40      N      0.323833333333     0.565466666667     0.734500000000    -0.026557   
N41      N      0.003900000000     0.604700000000     0.774450000000    -0.287662   
N42      N      0.253966666667     0.354033333333     0.750600000000    -0.167159   
N43      N      0.078500000000     0.456433333333     0.969400000000    -0.291048   
N44      N      0.175233333333     0.562333333333     0.953550000000    -0.222756   
N45      N      0.177566666667     0.418466666667     0.745050000000    -0.200097   
N46      N      0.303033333333     0.457766666667     0.652100000000    -0.201985   
N47      N      0.045933333333     0.496800000000     0.731600000000    -0.048208   
N48      N      0.299100000000     0.584433333333     0.725600000000    -0.307006   
N49      N      0.292666666667     0.480333333333     0.667450000000    -0.024541   
N50      N      0.321166666667     0.422066666667     0.737100000000     0.003744   
Ag1      Ag     0.228616666667     0.974933333333     0.029865000000     0.26505    
Ag2      Ag     0.004986666667     0.813570000000     0.290995000000     0.228176   
Ag3      Ag     0.118573333333     0.828710000000     0.322915000000     0.303031   
Ag4      Ag     0.299273333333     0.872630000000     0.337340000000     0.32127    
Ag5      Ag     0.271073333333     0.776490000000     0.216905000000     0.0889     
Ag6      Ag     0.157716666667     0.883966666667     0.401565000000     0.313659   
Ag7      Ag     0.104716666667     0.691733333333     0.470135000000     0.265058   
Ag8      Ag     0.115943333333     0.945866666667     0.250565000000     0.156584   
Ag9      Ag     0.214760000000     0.837956666667     0.177085000000     0.303042   
Ag10     Ag     0.217390000000     0.720800000000     0.249435000000     0.156553   
Ag11     Ag     0.034060000000     0.794036666667     0.162660000000     0.321275   
Ag12     Ag     0.062260000000     0.890176666667     0.283095000000     0.08886    
Ag13     Ag     0.175616666667     0.782700000000     0.098435000000     0.313657   
Ag14     Ag     0.328346666667     0.853096666667     0.209005000000     0.228157   
C1       C      0.072933333333     0.739566666667     0.072500000000    -0.181135   
C2       C      0.034800000000     0.674133333333     0.224300000000    -0.176868   
C3       C      0.044300000000     0.697500000000     0.249300000000     0.081093   
C4       C      0.089100000000     0.669400000000     0.274750000000     0.045853   
C5       C      0.072566666667     0.695366666667     0.276000000000    -0.16507    
C6       C      0.141033333333     0.741800000000     0.223700000000     0.028972   
C7       C      0.000100000000     0.751200000000     0.056250000000     0.09026    
C8       C      0.101600000000     0.792666666667     0.450050000000     0.077303   
C9       C      0.265966666667     0.746533333333     0.104650000000     0.026627   
C10      C      0.114000000000     0.759400000000     0.222000000000    -0.169136   
C11      C      0.271000000000     0.775433333333     0.128100000000     0.211218   
C12      C      0.045400000000     0.724400000000     0.045400000000     0.091889   
C13      C      0.133100000000     0.849500000000     0.472800000000     0.07639    
C14      C      0.307900000000     0.941333333333     0.249500000000     0.211824   
C15      C      0.283833333333     0.721566666667     0.112900000000    -0.197905   
C16      C      0.108766666667     0.845766666667     0.492900000000    -0.183294   
C17      C      0.052933333333     0.981933333333     0.224300000000     0.060952   
C18      C      0.093766666667     0.807300000000     0.244100000000     0.246002   
C19      C      0.161433333333     0.882766666667     0.475850000000     0.224085   
C20      C      0.063866666667     0.762266666667     0.092300000000     0.064127   
C21      C      0.121866666667     0.787000000000     0.243700000000     0.045894   
C22      C      0.240266666667     0.741833333333     0.075250000000    -0.203767   
C23      C      0.306633333333     0.898700000000     0.416200000000    -0.191879   
C24      C      0.211466666667     0.879666666667     0.256300000000     0.045938   
C25      C      0.059500000000     0.973300000000     0.409150000000     0.032759   
C26      C      0.192300000000     0.924866666667     0.276300000000     0.028979   
C27      C      0.333233333333     0.915466666667     0.443750000000     0.090277   
C28      C      0.204600000000     0.844166666667     0.049150000000    -0.195038   
C29      C      0.231733333333     0.874000000000     0.049950000000     0.077307   
C30      C      0.067366666667     0.920133333333     0.395350000000     0.026592   
C31      C      0.260400000000     0.927100000000     0.427500000000    -0.181134   
C32      C      0.219333333333     0.907266666667     0.278000000000    -0.169149   
C33      C      0.093066666667     0.924833333333     0.424750000000    -0.203759   
C34      C      0.287933333333     0.942266666667     0.454600000000     0.091889   
C35      C      0.200233333333     0.817166666667     0.027200000000     0.076392   
C36      C      0.238766666667     0.885833333333     0.378650000000     0.257615   
C37      C      0.025433333333     0.725333333333     0.250500000000     0.21184    
C38      C      0.224566666667     0.820900000000     0.007100000000    -0.183294   
C39      C      0.062333333333     0.891233333333     0.371900000000     0.21124    
C40      C      0.239566666667     0.859366666667     0.255900000000     0.245968   
C41      C      0.171900000000     0.783900000000     0.024150000000     0.224085   
C42      C      0.269466666667     0.904400000000     0.407700000000     0.064127   
C43      C      0.083266666667     0.816200000000     0.489900000000     0.083661   
C44      C      0.250066666667     0.850466666667     0.010100000000     0.08366    
C45      C      0.147400000000     0.886566666667     0.234700000000     0.050805   
C46      C      0.101500000000     0.954133333333     0.444850000000     0.052504   
C47      C      0.173766666667     0.868833333333     0.234750000000    -0.187546   
C48      C      0.049500000000     0.945100000000     0.387100000000    -0.19778    
C49      C      0.185933333333     0.780100000000     0.265300000000     0.050808   
C50      C      0.128733333333     0.822500000000     0.450850000000    -0.19503    
C51      C      0.159566666667     0.797833333333     0.265250000000    -0.187539   
C52      C      0.231833333333     0.712533333333     0.055150000000     0.052482   
C53      C      0.244233333333     0.997266666667     0.225250000000     0.045846   
C54      C      0.289033333333     0.969166666667     0.250700000000     0.081057   
C55      C      0.298533333333     0.992533333333     0.275700000000    -0.176853   
C56      C      0.260766666667     0.971300000000     0.224000000000    -0.165076   
C57      C      0.026700000000     0.767966666667     0.083800000000    -0.191865   
C58      C      0.094566666667     0.780833333333     0.121350000000     0.257611   
C59      C      0.273833333333     0.693366666667     0.090850000000     0.032851   
C60      C      0.280400000000     0.684733333333     0.275700000000     0.060936   
H1       H      0.301700000000     0.723833333333     0.132400000000     0.125237   
H2       H      0.143733333333     0.824366666667     0.437000000000     0.120407   
H3       H      0.099000000000     0.774066666667     0.435850000000     0.091833   
H4       H      0.097566666667     0.735033333333     0.078050000000     0.114408   
H5       H      0.090100000000     0.752700000000     0.206000000000     0.121024   
H6       H      0.228633333333     0.758533333333     0.069050000000     0.110295   
H7       H      0.051733333333     0.710000000000     0.031800000000     0.093441   
H8       H      0.110700000000     0.863633333333     0.007700000000     0.131496   
H9       H      0.285866666667     0.676633333333     0.096000000000     0.088586   
H10      H      0.211000000000     0.787733333333     0.279900000000     0.091129   
H11      H      0.214033333333     0.709666666667     0.035500000000     0.08775    
H12      H      0.166533333333     0.817366666667     0.279650000000     0.110197   
H13      H      0.308366666667     0.754900000000     0.050400000000     0.088551   
H14      H      0.020033333333     0.782966666667     0.096600000000     0.110467   
H15      H      0.286966666667     0.700233333333     0.293700000000     0.098092   
H16      H      0.317766666667     0.991666666667     0.293550000000     0.129394   
H17      H      0.225233333333     0.998866666667     0.207550000000     0.090096   
H18      H      0.067566666667     0.813833333333     0.003250000000     0.090135   
H19      H      0.134300000000     0.722033333333     0.209650000000     0.090479   
H20      H      0.253433333333     0.955600000000     0.206000000000     0.135392   
H21      H      0.108100000000     0.667800000000     0.292450000000     0.090094   
H22      H      0.079900000000     0.711066666667     0.294000000000     0.135394   
H23      H      0.199033333333     0.944633333333     0.290350000000     0.090476   
H24      H      0.024966666667     0.911766666667     0.449600000000     0.088554   
H25      H      0.189600000000     0.842300000000     0.063000000000     0.120408   
H26      H      0.234333333333     0.892600000000     0.064150000000     0.091833   
H27      H      0.235766666667     0.931633333333     0.421950000000     0.114408   
H28      H      0.104700000000     0.908133333333     0.430950000000     0.11029    
H29      H      0.281600000000     0.956666666667     0.468200000000     0.09344    
H30      H      0.031633333333     0.942833333333     0.367600000000     0.125221   
H31      H      0.243233333333     0.913966666667     0.294000000000     0.121027   
H32      H      0.265766666667     0.852833333333     0.496750000000     0.090135   
H33      H      0.122333333333     0.878933333333     0.220100000000     0.091127   
H34      H      0.119300000000     0.957000000000     0.464500000000     0.087742   
H35      H      0.166800000000     0.849300000000     0.220350000000     0.110198   
H36      H      0.047466666667     0.990033333333     0.404000000000     0.088591   
H37      H      0.313300000000     0.883700000000     0.403400000000     0.11047    
H38      H      0.046366666667     0.966433333333     0.206300000000     0.098093   
H39      H      0.222633333333     0.803033333333     0.492300000000     0.131494   
H40      H      0.015566666667     0.675000000000     0.206450000000     0.129396   
N1       N      0.183466666667     0.860600000000     0.344450000000    -0.03796    
N2       N      0.133733333333     0.740866666667     0.033250000000    -0.09307    
N3       N      0.267800000000     0.825366666667     0.239350000000    -0.015545   
N4       N      0.270433333333     0.858966666667     0.279700000000    -0.25648    
N5       N      0.199500000000     0.878866666667     0.373450000000    -0.234015   
N6       N      0.092666666667     0.876966666667     0.371650000000    -0.230092   
N7       N      0.247133333333     0.873666666667     0.353800000000    -0.227102   
N8       N      0.211733333333     0.857333333333     0.332450000000    -0.057932   
N9       N      0.078333333333     0.853166666667     0.346650000000    -0.06522    
N10      N      0.040666666667     0.853000000000     0.332550000000    -0.024584   
N11      N      0.287400000000     0.836533333333     0.268400000000    -0.048206   
N12      N      0.009500000000     0.767866666667     0.265500000000    -0.026603   
N13      N      0.329433333333     0.728633333333     0.225550000000    -0.287688   
N14      N      0.324500000000     0.937233333333     0.462750000000    -0.288935   
N15      N      0.079366666667     0.979300000000     0.249400000000    -0.167123   
N16      N      0.254833333333     0.876900000000     0.030600000000    -0.291049   
N17      N      0.158100000000     0.771000000000     0.046450000000    -0.222756   
N18      N      0.155766666667     0.914866666667     0.254950000000    -0.200086   
N19      N      0.030300000000     0.875566666667     0.347900000000    -0.201954   
N20      N      0.085333333333     0.978366666667     0.437500000000    -0.20554    
N21      N      0.034233333333     0.748900000000     0.274400000000    -0.306997   
N22      N      0.157700000000     0.762400000000     0.497600000000    -0.270598   
N23      N      0.238100000000     0.839766666667     0.230250000000    -0.237214   
N24      N      0.012166666667     0.911266666667     0.262900000000     0.003667   
N25      N      0.008833333333     0.729433333333     0.037250000000    -0.288936   
N26      N      0.175633333333     0.904266666667     0.002400000000    -0.270598   
N27      N      0.133866666667     0.736333333333     0.004150000000    -0.010338   
N28      N      0.248000000000     0.688300000000     0.062500000000    -0.205504   
N29      N      0.149866666667     0.806066666667     0.155550000000    -0.037964   
N30      N      0.133833333333     0.787800000000     0.126550000000    -0.234013   
N31      N      0.086200000000     0.793000000000     0.146200000000    -0.227102   
N32      N      0.240666666667     0.789700000000     0.128350000000    -0.230072   
N33      N      0.255000000000     0.813500000000     0.153350000000    -0.065232   
N34      N      0.062900000000     0.807700000000     0.220300000000    -0.256486   
N35      N      0.065533333333     0.841300000000     0.260650000000    -0.015533   
N36      N      0.199600000000     0.925800000000     0.466750000000    -0.093067   
N37      N      0.199466666667     0.930333333333     0.495850000000    -0.010333   
N38      N      0.121600000000     0.809333333333     0.167550000000    -0.057932   
N39      N      0.095233333333     0.826900000000     0.269750000000    -0.237216   
N40      N      0.323833333333     0.898800000000     0.234500000000    -0.026557   
N41      N      0.003900000000     0.938033333333     0.274450000000    -0.287662   
N42      N      0.253966666667     0.687366666667     0.250600000000    -0.167159   
N43      N      0.078500000000     0.789766666667     0.469400000000    -0.291048   
N44      N      0.175233333333     0.895666666667     0.453550000000    -0.222756   
N45      N      0.177566666667     0.751800000000     0.245050000000    -0.200097   
N46      N      0.303033333333     0.791100000000     0.152100000000    -0.201985   
N47      N      0.045933333333     0.830133333333     0.231600000000    -0.048208   
N48      N      0.299100000000     0.917766666667     0.225600000000    -0.307006   
N49      N      0.292666666667     0.813666666667     0.167450000000    -0.024541   
N50      N      0.321166666667     0.755400000000     0.237100000000     0.003744   
Ag1      Ag     0.228616666667     0.974933333333     0.529865000000     0.26505    
Ag2      Ag     0.004986666667     0.813570000000     0.790995000000     0.228176   
Ag3      Ag     0.118573333333     0.828710000000     0.822915000000     0.303031   
Ag4      Ag     0.299273333333     0.872630000000     0.837340000000     0.32127    
Ag5      Ag     0.271073333333     0.776490000000     0.716905000000     0.0889     
Ag6      Ag     0.157716666667     0.883966666667     0.901565000000     0.313659   
Ag7      Ag     0.104716666667     0.691733333333     0.970135000000     0.265058   
Ag8      Ag     0.115943333333     0.945866666667     0.750565000000     0.156584   
Ag9      Ag     0.214760000000     0.837956666667     0.677085000000     0.303042   
Ag10     Ag     0.217390000000     0.720800000000     0.749435000000     0.156553   
Ag11     Ag     0.034060000000     0.794036666667     0.662660000000     0.321275   
Ag12     Ag     0.062260000000     0.890176666667     0.783095000000     0.08886    
Ag13     Ag     0.175616666667     0.782700000000     0.598435000000     0.313657   
Ag14     Ag     0.328346666667     0.853096666667     0.709005000000     0.228157   
C1       C      0.072933333333     0.739566666667     0.572500000000    -0.181135   
C2       C      0.034800000000     0.674133333333     0.724300000000    -0.176868   
C3       C      0.044300000000     0.697500000000     0.749300000000     0.081093   
C4       C      0.089100000000     0.669400000000     0.774750000000     0.045853   
C5       C      0.072566666667     0.695366666667     0.776000000000    -0.16507    
C6       C      0.141033333333     0.741800000000     0.723700000000     0.028972   
C7       C      0.000100000000     0.751200000000     0.556250000000     0.09026    
C8       C      0.101600000000     0.792666666667     0.950050000000     0.077303   
C9       C      0.265966666667     0.746533333333     0.604650000000     0.026627   
C10      C      0.114000000000     0.759400000000     0.722000000000    -0.169136   
C11      C      0.271000000000     0.775433333333     0.628100000000     0.211218   
C12      C      0.045400000000     0.724400000000     0.545400000000     0.091889   
C13      C      0.133100000000     0.849500000000     0.972800000000     0.07639    
C14      C      0.307900000000     0.941333333333     0.749500000000     0.211824   
C15      C      0.283833333333     0.721566666667     0.612900000000    -0.197905   
C16      C      0.108766666667     0.845766666667     0.992900000000    -0.183294   
C17      C      0.052933333333     0.981933333333     0.724300000000     0.060952   
C18      C      0.093766666667     0.807300000000     0.744100000000     0.246002   
C19      C      0.161433333333     0.882766666667     0.975850000000     0.224085   
C20      C      0.063866666667     0.762266666667     0.592300000000     0.064127   
C21      C      0.121866666667     0.787000000000     0.743700000000     0.045894   
C22      C      0.240266666667     0.741833333333     0.575250000000    -0.203767   
C23      C      0.306633333333     0.898700000000     0.916200000000    -0.191879   
C24      C      0.211466666667     0.879666666667     0.756300000000     0.045938   
C25      C      0.059500000000     0.973300000000     0.909150000000     0.032759   
C26      C      0.192300000000     0.924866666667     0.776300000000     0.028979   
C27      C      0.333233333333     0.915466666667     0.943750000000     0.090277   
C28      C      0.204600000000     0.844166666667     0.549150000000    -0.195038   
C29      C      0.231733333333     0.874000000000     0.549950000000     0.077307   
C30      C      0.067366666667     0.920133333333     0.895350000000     0.026592   
C31      C      0.260400000000     0.927100000000     0.927500000000    -0.181134   
C32      C      0.219333333333     0.907266666667     0.778000000000    -0.169149   
C33      C      0.093066666667     0.924833333333     0.924750000000    -0.203759   
C34      C      0.287933333333     0.942266666667     0.954600000000     0.091889   
C35      C      0.200233333333     0.817166666667     0.527200000000     0.076392   
C36      C      0.238766666667     0.885833333333     0.878650000000     0.257615   
C37      C      0.025433333333     0.725333333333     0.750500000000     0.21184    
C38      C      0.224566666667     0.820900000000     0.507100000000    -0.183294   
C39      C      0.062333333333     0.891233333333     0.871900000000     0.21124    
C40      C      0.239566666667     0.859366666667     0.755900000000     0.245968   
C41      C      0.171900000000     0.783900000000     0.524150000000     0.224085   
C42      C      0.269466666667     0.904400000000     0.907700000000     0.064127   
C43      C      0.083266666667     0.816200000000     0.989900000000     0.083661   
C44      C      0.250066666667     0.850466666667     0.510100000000     0.08366    
C45      C      0.147400000000     0.886566666667     0.734700000000     0.050805   
C46      C      0.101500000000     0.954133333333     0.944850000000     0.052504   
C47      C      0.173766666667     0.868833333333     0.734750000000    -0.187546   
C48      C      0.049500000000     0.945100000000     0.887100000000    -0.19778    
C49      C      0.185933333333     0.780100000000     0.765300000000     0.050808   
C50      C      0.128733333333     0.822500000000     0.950850000000    -0.19503    
C51      C      0.159566666667     0.797833333333     0.765250000000    -0.187539   
C52      C      0.231833333333     0.712533333333     0.555150000000     0.052482   
C53      C      0.244233333333     0.997266666667     0.725250000000     0.045846   
C54      C      0.289033333333     0.969166666667     0.750700000000     0.081057   
C55      C      0.298533333333     0.992533333333     0.775700000000    -0.176853   
C56      C      0.260766666667     0.971300000000     0.724000000000    -0.165076   
C57      C      0.026700000000     0.767966666667     0.583800000000    -0.191865   
C58      C      0.094566666667     0.780833333333     0.621350000000     0.257611   
C59      C      0.273833333333     0.693366666667     0.590850000000     0.032851   
C60      C      0.280400000000     0.684733333333     0.775700000000     0.060936   
H1       H      0.301700000000     0.723833333333     0.632400000000     0.125237   
H2       H      0.143733333333     0.824366666667     0.937000000000     0.120407   
H3       H      0.099000000000     0.774066666667     0.935850000000     0.091833   
H4       H      0.097566666667     0.735033333333     0.578050000000     0.114408   
H5       H      0.090100000000     0.752700000000     0.706000000000     0.121024   
H6       H      0.228633333333     0.758533333333     0.569050000000     0.110295   
H7       H      0.051733333333     0.710000000000     0.531800000000     0.093441   
H8       H      0.110700000000     0.863633333333     0.507700000000     0.131496   
H9       H      0.285866666667     0.676633333333     0.596000000000     0.088586   
H10      H      0.211000000000     0.787733333333     0.779900000000     0.091129   
H11      H      0.214033333333     0.709666666667     0.535500000000     0.08775    
H12      H      0.166533333333     0.817366666667     0.779650000000     0.110197   
H13      H      0.308366666667     0.754900000000     0.550400000000     0.088551   
H14      H      0.020033333333     0.782966666667     0.596600000000     0.110467   
H15      H      0.286966666667     0.700233333333     0.793700000000     0.098092   
H16      H      0.317766666667     0.991666666667     0.793550000000     0.129394   
H17      H      0.225233333333     0.998866666667     0.707550000000     0.090096   
H18      H      0.067566666667     0.813833333333     0.503250000000     0.090135   
H19      H      0.134300000000     0.722033333333     0.709650000000     0.090479   
H20      H      0.253433333333     0.955600000000     0.706000000000     0.135392   
H21      H      0.108100000000     0.667800000000     0.792450000000     0.090094   
H22      H      0.079900000000     0.711066666667     0.794000000000     0.135394   
H23      H      0.199033333333     0.944633333333     0.790350000000     0.090476   
H24      H      0.024966666667     0.911766666667     0.949600000000     0.088554   
H25      H      0.189600000000     0.842300000000     0.563000000000     0.120408   
H26      H      0.234333333333     0.892600000000     0.564150000000     0.091833   
H27      H      0.235766666667     0.931633333333     0.921950000000     0.114408   
H28      H      0.104700000000     0.908133333333     0.930950000000     0.11029    
H29      H      0.281600000000     0.956666666667     0.968200000000     0.09344    
H30      H      0.031633333333     0.942833333333     0.867600000000     0.125221   
H31      H      0.243233333333     0.913966666667     0.794000000000     0.121027   
H32      H      0.265766666667     0.852833333333     0.996750000000     0.090135   
H33      H      0.122333333333     0.878933333333     0.720100000000     0.091127   
H34      H      0.119300000000     0.957000000000     0.964500000000     0.087742   
H35      H      0.166800000000     0.849300000000     0.720350000000     0.110198   
H36      H      0.047466666667     0.990033333333     0.904000000000     0.088591   
H37      H      0.313300000000     0.883700000000     0.903400000000     0.11047    
H38      H      0.046366666667     0.966433333333     0.706300000000     0.098093   
H39      H      0.222633333333     0.803033333333     0.992300000000     0.131494   
H40      H      0.015566666667     0.675000000000     0.706450000000     0.129396   
N1       N      0.183466666667     0.860600000000     0.844450000000    -0.03796    
N2       N      0.133733333333     0.740866666667     0.533250000000    -0.09307    
N3       N      0.267800000000     0.825366666667     0.739350000000    -0.015545   
N4       N      0.270433333333     0.858966666667     0.779700000000    -0.25648    
N5       N      0.199500000000     0.878866666667     0.873450000000    -0.234015   
N6       N      0.092666666667     0.876966666667     0.871650000000    -0.230092   
N7       N      0.247133333333     0.873666666667     0.853800000000    -0.227102   
N8       N      0.211733333333     0.857333333333     0.832450000000    -0.057932   
N9       N      0.078333333333     0.853166666667     0.846650000000    -0.06522    
N10      N      0.040666666667     0.853000000000     0.832550000000    -0.024584   
N11      N      0.287400000000     0.836533333333     0.768400000000    -0.048206   
N12      N      0.009500000000     0.767866666667     0.765500000000    -0.026603   
N13      N      0.329433333333     0.728633333333     0.725550000000    -0.287688   
N14      N      0.324500000000     0.937233333333     0.962750000000    -0.288935   
N15      N      0.079366666667     0.979300000000     0.749400000000    -0.167123   
N16      N      0.254833333333     0.876900000000     0.530600000000    -0.291049   
N17      N      0.158100000000     0.771000000000     0.546450000000    -0.222756   
N18      N      0.155766666667     0.914866666667     0.754950000000    -0.200086   
N19      N      0.030300000000     0.875566666667     0.847900000000    -0.201954   
N20      N      0.085333333333     0.978366666667     0.937500000000    -0.20554    
N21      N      0.034233333333     0.748900000000     0.774400000000    -0.306997   
N22      N      0.157700000000     0.762400000000     0.997600000000    -0.270598   
N23      N      0.238100000000     0.839766666667     0.730250000000    -0.237214   
N24      N      0.012166666667     0.911266666667     0.762900000000     0.003667   
N25      N      0.008833333333     0.729433333333     0.537250000000    -0.288936   
N26      N      0.175633333333     0.904266666667     0.502400000000    -0.270598   
N27      N      0.133866666667     0.736333333333     0.504150000000    -0.010338   
N28      N      0.248000000000     0.688300000000     0.562500000000    -0.205504   
N29      N      0.149866666667     0.806066666667     0.655550000000    -0.037964   
N30      N      0.133833333333     0.787800000000     0.626550000000    -0.234013   
N31      N      0.086200000000     0.793000000000     0.646200000000    -0.227102   
N32      N      0.240666666667     0.789700000000     0.628350000000    -0.230072   
N33      N      0.255000000000     0.813500000000     0.653350000000    -0.065232   
N34      N      0.062900000000     0.807700000000     0.720300000000    -0.256486   
N35      N      0.065533333333     0.841300000000     0.760650000000    -0.015533   
N36      N      0.199600000000     0.925800000000     0.966750000000    -0.093067   
N37      N      0.199466666667     0.930333333333     0.995850000000    -0.010333   
N38      N      0.121600000000     0.809333333333     0.667550000000    -0.057932   
N39      N      0.095233333333     0.826900000000     0.769750000000    -0.237216   
N40      N      0.323833333333     0.898800000000     0.734500000000    -0.026557   
N41      N      0.003900000000     0.938033333333     0.774450000000    -0.287662   
N42      N      0.253966666667     0.687366666667     0.750600000000    -0.167159   
N43      N      0.078500000000     0.789766666667     0.969400000000    -0.291048   
N44      N      0.175233333333     0.895666666667     0.953550000000    -0.222756   
N45      N      0.177566666667     0.751800000000     0.745050000000    -0.200097   
N46      N      0.303033333333     0.791100000000     0.652100000000    -0.201985   
N47      N      0.045933333333     0.830133333333     0.731600000000    -0.048208   
N48      N      0.299100000000     0.917766666667     0.725600000000    -0.307006   
N49      N      0.292666666667     0.813666666667     0.667450000000    -0.024541   
N50      N      0.321166666667     0.755400000000     0.737100000000     0.003744   
Ag1      Ag     0.561950000000     0.308266666667     0.029865000000     0.26505    
Ag2      Ag     0.338320000000     0.146903333333     0.290995000000     0.228176   
Ag3      Ag     0.451906666667     0.162043333333     0.322915000000     0.303031   
Ag4      Ag     0.632606666667     0.205963333333     0.337340000000     0.32127    
Ag5      Ag     0.604406666667     0.109823333333     0.216905000000     0.0889     
Ag6      Ag     0.491050000000     0.217300000000     0.401565000000     0.313659   
Ag7      Ag     0.438050000000     0.025066666667     0.470135000000     0.265058   
Ag8      Ag     0.449276666667     0.279200000000     0.250565000000     0.156584   
Ag9      Ag     0.548093333333     0.171290000000     0.177085000000     0.303042   
Ag10     Ag     0.550723333333     0.054133333333     0.249435000000     0.156553   
Ag11     Ag     0.367393333333     0.127370000000     0.162660000000     0.321275   
Ag12     Ag     0.395593333333     0.223510000000     0.283095000000     0.08886    
Ag13     Ag     0.508950000000     0.116033333333     0.098435000000     0.313657   
Ag14     Ag     0.661680000000     0.186430000000     0.209005000000     0.228157   
C1       C      0.406266666667     0.072900000000     0.072500000000    -0.181135   
C2       C      0.368133333333     0.007466666667     0.224300000000    -0.176868   
C3       C      0.377633333333     0.030833333333     0.249300000000     0.081093   
C4       C      0.422433333333     0.002733333333     0.274750000000     0.045853   
C5       C      0.405900000000     0.028700000000     0.276000000000    -0.16507    
C6       C      0.474366666667     0.075133333333     0.223700000000     0.028972   
C7       C      0.333433333333     0.084533333333     0.056250000000     0.09026    
C8       C      0.434933333333     0.126000000000     0.450050000000     0.077303   
C9       C      0.599300000000     0.079866666667     0.104650000000     0.026627   
C10      C      0.447333333333     0.092733333333     0.222000000000    -0.169136   
C11      C      0.604333333333     0.108766666667     0.128100000000     0.211218   
C12      C      0.378733333333     0.057733333333     0.045400000000     0.091889   
C13      C      0.466433333333     0.182833333333     0.472800000000     0.07639    
C14      C      0.641233333333     0.274666666667     0.249500000000     0.211824   
C15      C      0.617166666667     0.054900000000     0.112900000000    -0.197905   
C16      C      0.442100000000     0.179100000000     0.492900000000    -0.183294   
C17      C      0.386266666667     0.315266666667     0.224300000000     0.060952   
C18      C      0.427100000000     0.140633333333     0.244100000000     0.246002   
C19      C      0.494766666667     0.216100000000     0.475850000000     0.224085   
C20      C      0.397200000000     0.095600000000     0.092300000000     0.064127   
C21      C      0.455200000000     0.120333333333     0.243700000000     0.045894   
C22      C      0.573600000000     0.075166666667     0.075250000000    -0.203767   
C23      C      0.639966666667     0.232033333333     0.416200000000    -0.191879   
C24      C      0.544800000000     0.213000000000     0.256300000000     0.045938   
C25      C      0.392833333333     0.306633333333     0.409150000000     0.032759   
C26      C      0.525633333333     0.258200000000     0.276300000000     0.028979   
C27      C      0.666566666667     0.248800000000     0.443750000000     0.090277   
C28      C      0.537933333333     0.177500000000     0.049150000000    -0.195038   
C29      C      0.565066666667     0.207333333333     0.049950000000     0.077307   
C30      C      0.400700000000     0.253466666667     0.395350000000     0.026592   
C31      C      0.593733333333     0.260433333333     0.427500000000    -0.181134   
C32      C      0.552666666667     0.240600000000     0.278000000000    -0.169149   
C33      C      0.426400000000     0.258166666667     0.424750000000    -0.203759   
C34      C      0.621266666667     0.275600000000     0.454600000000     0.091889   
C35      C      0.533566666667     0.150500000000     0.027200000000     0.076392   
C36      C      0.572100000000     0.219166666667     0.378650000000     0.257615   
C37      C      0.358766666667     0.058666666667     0.250500000000     0.21184    
C38      C      0.557900000000     0.154233333333     0.007100000000    -0.183294   
C39      C      0.395666666667     0.224566666667     0.371900000000     0.21124    
C40      C      0.572900000000     0.192700000000     0.255900000000     0.245968   
C41      C      0.505233333333     0.117233333333     0.024150000000     0.224085   
C42      C      0.602800000000     0.237733333333     0.407700000000     0.064127   
C43      C      0.416600000000     0.149533333333     0.489900000000     0.083661   
C44      C      0.583400000000     0.183800000000     0.010100000000     0.08366    
C45      C      0.480733333333     0.219900000000     0.234700000000     0.050805   
C46      C      0.434833333333     0.287466666667     0.444850000000     0.052504   
C47      C      0.507100000000     0.202166666667     0.234750000000    -0.187546   
C48      C      0.382833333333     0.278433333333     0.387100000000    -0.19778    
C49      C      0.519266666667     0.113433333333     0.265300000000     0.050808   
C50      C      0.462066666667     0.155833333333     0.450850000000    -0.19503    
C51      C      0.492900000000     0.131166666667     0.265250000000    -0.187539   
C52      C      0.565166666667     0.045866666667     0.055150000000     0.052482   
C53      C      0.577566666667     0.330600000000     0.225250000000     0.045846   
C54      C      0.622366666667     0.302500000000     0.250700000000     0.081057   
C55      C      0.631866666667     0.325866666667     0.275700000000    -0.176853   
C56      C      0.594100000000     0.304633333333     0.224000000000    -0.165076   
C57      C      0.360033333333     0.101300000000     0.083800000000    -0.191865   
C58      C      0.427900000000     0.114166666667     0.121350000000     0.257611   
C59      C      0.607166666667     0.026700000000     0.090850000000     0.032851   
C60      C      0.613733333333     0.018066666667     0.275700000000     0.060936   
H1       H      0.635033333333     0.057166666667     0.132400000000     0.125237   
H2       H      0.477066666667     0.157700000000     0.437000000000     0.120407   
H3       H      0.432333333333     0.107400000000     0.435850000000     0.091833   
H4       H      0.430900000000     0.068366666667     0.078050000000     0.114408   
H5       H      0.423433333333     0.086033333333     0.206000000000     0.121024   
H6       H      0.561966666667     0.091866666667     0.069050000000     0.110295   
H7       H      0.385066666667     0.043333333333     0.031800000000     0.093441   
H8       H      0.444033333333     0.196966666667     0.007700000000     0.131496   
H9       H      0.619200000000     0.009966666667     0.096000000000     0.088586   
H10      H      0.544333333333     0.121066666667     0.279900000000     0.091129   
H11      H      0.547366666667     0.043000000000     0.035500000000     0.08775    
H12      H      0.499866666667     0.150700000000     0.279650000000     0.110197   
H13      H      0.641700000000     0.088233333333     0.050400000000     0.088551   
H14      H      0.353366666667     0.116300000000     0.096600000000     0.110467   
H15      H      0.620300000000     0.033566666667     0.293700000000     0.098092   
H16      H      0.651100000000     0.325000000000     0.293550000000     0.129394   
H17      H      0.558566666667     0.332200000000     0.207550000000     0.090096   
H18      H      0.400900000000     0.147166666667     0.003250000000     0.090135   
H19      H      0.467633333333     0.055366666667     0.209650000000     0.090479   
H20      H      0.586766666667     0.288933333333     0.206000000000     0.135392   
H21      H      0.441433333333     0.001133333333     0.292450000000     0.090094   
H22      H      0.413233333333     0.044400000000     0.294000000000     0.135394   
H23      H      0.532366666667     0.277966666667     0.290350000000     0.090476   
H24      H      0.358300000000     0.245100000000     0.449600000000     0.088554   
H25      H      0.522933333333     0.175633333333     0.063000000000     0.120408   
H26      H      0.567666666667     0.225933333333     0.064150000000     0.091833   
H27      H      0.569100000000     0.264966666667     0.421950000000     0.114408   
H28      H      0.438033333333     0.241466666667     0.430950000000     0.11029    
H29      H      0.614933333333     0.290000000000     0.468200000000     0.09344    
H30      H      0.364966666667     0.276166666667     0.367600000000     0.125221   
H31      H      0.576566666667     0.247300000000     0.294000000000     0.121027   
H32      H      0.599100000000     0.186166666667     0.496750000000     0.090135   
H33      H      0.455666666667     0.212266666667     0.220100000000     0.091127   
H34      H      0.452633333333     0.290333333333     0.464500000000     0.087742   
H35      H      0.500133333333     0.182633333333     0.220350000000     0.110198   
H36      H      0.380800000000     0.323366666667     0.404000000000     0.088591   
H37      H      0.646633333333     0.217033333333     0.403400000000     0.11047    
H38      H      0.379700000000     0.299766666667     0.206300000000     0.098093   
H39      H      0.555966666667     0.136366666667     0.492300000000     0.131494   
H40      H      0.348900000000     0.008333333333     0.206450000000     0.129396   
N1       N      0.516800000000     0.193933333333     0.344450000000    -0.03796    
N2       N      0.467066666667     0.074200000000     0.033250000000    -0.09307    
N3       N      0.601133333333     0.158700000000     0.239350000000    -0.015545   
N4       N      0.603766666667     0.192300000000     0.279700000000    -0.25648    
N5       N      0.532833333333     0.212200000000     0.373450000000    -0.234015   
N6       N      0.426000000000     0.210300000000     0.371650000000    -0.230092   
N7       N      0.580466666667     0.207000000000     0.353800000000    -0.227102   
N8       N      0.545066666667     0.190666666667     0.332450000000    -0.057932   
N9       N      0.411666666667     0.186500000000     0.346650000000    -0.06522    
N10      N      0.374000000000     0.186333333333     0.332550000000    -0.024584   
N11      N      0.620733333333     0.169866666667     0.268400000000    -0.048206   
N12      N      0.342833333333     0.101200000000     0.265500000000    -0.026603   
N13      N      0.662766666667     0.061966666667     0.225550000000    -0.287688   
N14      N      0.657833333333     0.270566666667     0.462750000000    -0.288935   
N15      N      0.412700000000     0.312633333333     0.249400000000    -0.167123   
N16      N      0.588166666667     0.210233333333     0.030600000000    -0.291049   
N17      N      0.491433333333     0.104333333333     0.046450000000    -0.222756   
N18      N      0.489100000000     0.248200000000     0.254950000000    -0.200086   
N19      N      0.363633333333     0.208900000000     0.347900000000    -0.201954   
N20      N      0.418666666667     0.311700000000     0.437500000000    -0.20554    
N21      N      0.367566666667     0.082233333333     0.274400000000    -0.306997   
N22      N      0.491033333333     0.095733333333     0.497600000000    -0.270598   
N23      N      0.571433333333     0.173100000000     0.230250000000    -0.237214   
N24      N      0.345500000000     0.244600000000     0.262900000000     0.003667   
N25      N      0.342166666667     0.062766666667     0.037250000000    -0.288936   
N26      N      0.508966666667     0.237600000000     0.002400000000    -0.270598   
N27      N      0.467200000000     0.069666666667     0.004150000000    -0.010338   
N28      N      0.581333333333     0.021633333333     0.062500000000    -0.205504   
N29      N      0.483200000000     0.139400000000     0.155550000000    -0.037964   
N30      N      0.467166666667     0.121133333333     0.126550000000    -0.234013   
N31      N      0.419533333333     0.126333333333     0.146200000000    -0.227102   
N32      N      0.574000000000     0.123033333333     0.128350000000    -0.230072   
N33      N      0.588333333333     0.146833333333     0.153350000000    -0.065232   
N34      N      0.396233333333     0.141033333333     0.220300000000    -0.256486   
N35      N      0.398866666667     0.174633333333     0.260650000000    -0.015533   
N36      N      0.532933333333     0.259133333333     0.466750000000    -0.093067   
N37      N      0.532800000000     0.263666666667     0.495850000000    -0.010333   
N38      N      0.454933333333     0.142666666667     0.167550000000    -0.057932   
N39      N      0.428566666667     0.160233333333     0.269750000000    -0.237216   
N40      N      0.657166666667     0.232133333333     0.234500000000    -0.026557   
N41      N      0.337233333333     0.271366666667     0.274450000000    -0.287662   
N42      N      0.587300000000     0.020700000000     0.250600000000    -0.167159   
N43      N      0.411833333333     0.123100000000     0.469400000000    -0.291048   
N44      N      0.508566666667     0.229000000000     0.453550000000    -0.222756   
N45      N      0.510900000000     0.085133333333     0.245050000000    -0.200097   
N46      N      0.636366666667     0.124433333333     0.152100000000    -0.201985   
N47      N      0.379266666667     0.163466666667     0.231600000000    -0.048208   
N48      N      0.632433333333     0.251100000000     0.225600000000    -0.307006   
N49      N      0.626000000000     0.147000000000     0.167450000000    -0.024541   
N50      N      0.654500000000     0.088733333333     0.237100000000     0.003744   
Ag1      Ag     0.561950000000     0.308266666667     0.529865000000     0.26505    
Ag2      Ag     0.338320000000     0.146903333333     0.790995000000     0.228176   
Ag3      Ag     0.451906666667     0.162043333333     0.822915000000     0.303031   
Ag4      Ag     0.632606666667     0.205963333333     0.837340000000     0.32127    
Ag5      Ag     0.604406666667     0.109823333333     0.716905000000     0.0889     
Ag6      Ag     0.491050000000     0.217300000000     0.901565000000     0.313659   
Ag7      Ag     0.438050000000     0.025066666667     0.970135000000     0.265058   
Ag8      Ag     0.449276666667     0.279200000000     0.750565000000     0.156584   
Ag9      Ag     0.548093333333     0.171290000000     0.677085000000     0.303042   
Ag10     Ag     0.550723333333     0.054133333333     0.749435000000     0.156553   
Ag11     Ag     0.367393333333     0.127370000000     0.662660000000     0.321275   
Ag12     Ag     0.395593333333     0.223510000000     0.783095000000     0.08886    
Ag13     Ag     0.508950000000     0.116033333333     0.598435000000     0.313657   
Ag14     Ag     0.661680000000     0.186430000000     0.709005000000     0.228157   
C1       C      0.406266666667     0.072900000000     0.572500000000    -0.181135   
C2       C      0.368133333333     0.007466666667     0.724300000000    -0.176868   
C3       C      0.377633333333     0.030833333333     0.749300000000     0.081093   
C4       C      0.422433333333     0.002733333333     0.774750000000     0.045853   
C5       C      0.405900000000     0.028700000000     0.776000000000    -0.16507    
C6       C      0.474366666667     0.075133333333     0.723700000000     0.028972   
C7       C      0.333433333333     0.084533333333     0.556250000000     0.09026    
C8       C      0.434933333333     0.126000000000     0.950050000000     0.077303   
C9       C      0.599300000000     0.079866666667     0.604650000000     0.026627   
C10      C      0.447333333333     0.092733333333     0.722000000000    -0.169136   
C11      C      0.604333333333     0.108766666667     0.628100000000     0.211218   
C12      C      0.378733333333     0.057733333333     0.545400000000     0.091889   
C13      C      0.466433333333     0.182833333333     0.972800000000     0.07639    
C14      C      0.641233333333     0.274666666667     0.749500000000     0.211824   
C15      C      0.617166666667     0.054900000000     0.612900000000    -0.197905   
C16      C      0.442100000000     0.179100000000     0.992900000000    -0.183294   
C17      C      0.386266666667     0.315266666667     0.724300000000     0.060952   
C18      C      0.427100000000     0.140633333333     0.744100000000     0.246002   
C19      C      0.494766666667     0.216100000000     0.975850000000     0.224085   
C20      C      0.397200000000     0.095600000000     0.592300000000     0.064127   
C21      C      0.455200000000     0.120333333333     0.743700000000     0.045894   
C22      C      0.573600000000     0.075166666667     0.575250000000    -0.203767   
C23      C      0.639966666667     0.232033333333     0.916200000000    -0.191879   
C24      C      0.544800000000     0.213000000000     0.756300000000     0.045938   
C25      C      0.392833333333     0.306633333333     0.909150000000     0.032759   
C26      C      0.525633333333     0.258200000000     0.776300000000     0.028979   
C27      C      0.666566666667     0.248800000000     0.943750000000     0.090277   
C28      C      0.537933333333     0.177500000000     0.549150000000    -0.195038   
C29      C      0.565066666667     0.207333333333     0.549950000000     0.077307   
C30      C      0.400700000000     0.253466666667     0.895350000000     0.026592   
C31      C      0.593733333333     0.260433333333     0.927500000000    -0.181134   
C32      C      0.552666666667     0.240600000000     0.778000000000    -0.169149   
C33      C      0.426400000000     0.258166666667     0.924750000000    -0.203759   
C34      C      0.621266666667     0.275600000000     0.954600000000     0.091889   
C35      C      0.533566666667     0.150500000000     0.527200000000     0.076392   
C36      C      0.572100000000     0.219166666667     0.878650000000     0.257615   
C37      C      0.358766666667     0.058666666667     0.750500000000     0.21184    
C38      C      0.557900000000     0.154233333333     0.507100000000    -0.183294   
C39      C      0.395666666667     0.224566666667     0.871900000000     0.21124    
C40      C      0.572900000000     0.192700000000     0.755900000000     0.245968   
C41      C      0.505233333333     0.117233333333     0.524150000000     0.224085   
C42      C      0.602800000000     0.237733333333     0.907700000000     0.064127   
C43      C      0.416600000000     0.149533333333     0.989900000000     0.083661   
C44      C      0.583400000000     0.183800000000     0.510100000000     0.08366    
C45      C      0.480733333333     0.219900000000     0.734700000000     0.050805   
C46      C      0.434833333333     0.287466666667     0.944850000000     0.052504   
C47      C      0.507100000000     0.202166666667     0.734750000000    -0.187546   
C48      C      0.382833333333     0.278433333333     0.887100000000    -0.19778    
C49      C      0.519266666667     0.113433333333     0.765300000000     0.050808   
C50      C      0.462066666667     0.155833333333     0.950850000000    -0.19503    
C51      C      0.492900000000     0.131166666667     0.765250000000    -0.187539   
C52      C      0.565166666667     0.045866666667     0.555150000000     0.052482   
C53      C      0.577566666667     0.330600000000     0.725250000000     0.045846   
C54      C      0.622366666667     0.302500000000     0.750700000000     0.081057   
C55      C      0.631866666667     0.325866666667     0.775700000000    -0.176853   
C56      C      0.594100000000     0.304633333333     0.724000000000    -0.165076   
C57      C      0.360033333333     0.101300000000     0.583800000000    -0.191865   
C58      C      0.427900000000     0.114166666667     0.621350000000     0.257611   
C59      C      0.607166666667     0.026700000000     0.590850000000     0.032851   
C60      C      0.613733333333     0.018066666667     0.775700000000     0.060936   
H1       H      0.635033333333     0.057166666667     0.632400000000     0.125237   
H2       H      0.477066666667     0.157700000000     0.937000000000     0.120407   
H3       H      0.432333333333     0.107400000000     0.935850000000     0.091833   
H4       H      0.430900000000     0.068366666667     0.578050000000     0.114408   
H5       H      0.423433333333     0.086033333333     0.706000000000     0.121024   
H6       H      0.561966666667     0.091866666667     0.569050000000     0.110295   
H7       H      0.385066666667     0.043333333333     0.531800000000     0.093441   
H8       H      0.444033333333     0.196966666667     0.507700000000     0.131496   
H9       H      0.619200000000     0.009966666667     0.596000000000     0.088586   
H10      H      0.544333333333     0.121066666667     0.779900000000     0.091129   
H11      H      0.547366666667     0.043000000000     0.535500000000     0.08775    
H12      H      0.499866666667     0.150700000000     0.779650000000     0.110197   
H13      H      0.641700000000     0.088233333333     0.550400000000     0.088551   
H14      H      0.353366666667     0.116300000000     0.596600000000     0.110467   
H15      H      0.620300000000     0.033566666667     0.793700000000     0.098092   
H16      H      0.651100000000     0.325000000000     0.793550000000     0.129394   
H17      H      0.558566666667     0.332200000000     0.707550000000     0.090096   
H18      H      0.400900000000     0.147166666667     0.503250000000     0.090135   
H19      H      0.467633333333     0.055366666667     0.709650000000     0.090479   
H20      H      0.586766666667     0.288933333333     0.706000000000     0.135392   
H21      H      0.441433333333     0.001133333333     0.792450000000     0.090094   
H22      H      0.413233333333     0.044400000000     0.794000000000     0.135394   
H23      H      0.532366666667     0.277966666667     0.790350000000     0.090476   
H24      H      0.358300000000     0.245100000000     0.949600000000     0.088554   
H25      H      0.522933333333     0.175633333333     0.563000000000     0.120408   
H26      H      0.567666666667     0.225933333333     0.564150000000     0.091833   
H27      H      0.569100000000     0.264966666667     0.921950000000     0.114408   
H28      H      0.438033333333     0.241466666667     0.930950000000     0.11029    
H29      H      0.614933333333     0.290000000000     0.968200000000     0.09344    
H30      H      0.364966666667     0.276166666667     0.867600000000     0.125221   
H31      H      0.576566666667     0.247300000000     0.794000000000     0.121027   
H32      H      0.599100000000     0.186166666667     0.996750000000     0.090135   
H33      H      0.455666666667     0.212266666667     0.720100000000     0.091127   
H34      H      0.452633333333     0.290333333333     0.964500000000     0.087742   
H35      H      0.500133333333     0.182633333333     0.720350000000     0.110198   
H36      H      0.380800000000     0.323366666667     0.904000000000     0.088591   
H37      H      0.646633333333     0.217033333333     0.903400000000     0.11047    
H38      H      0.379700000000     0.299766666667     0.706300000000     0.098093   
H39      H      0.555966666667     0.136366666667     0.992300000000     0.131494   
H40      H      0.348900000000     0.008333333333     0.706450000000     0.129396   
N1       N      0.516800000000     0.193933333333     0.844450000000    -0.03796    
N2       N      0.467066666667     0.074200000000     0.533250000000    -0.09307    
N3       N      0.601133333333     0.158700000000     0.739350000000    -0.015545   
N4       N      0.603766666667     0.192300000000     0.779700000000    -0.25648    
N5       N      0.532833333333     0.212200000000     0.873450000000    -0.234015   
N6       N      0.426000000000     0.210300000000     0.871650000000    -0.230092   
N7       N      0.580466666667     0.207000000000     0.853800000000    -0.227102   
N8       N      0.545066666667     0.190666666667     0.832450000000    -0.057932   
N9       N      0.411666666667     0.186500000000     0.846650000000    -0.06522    
N10      N      0.374000000000     0.186333333333     0.832550000000    -0.024584   
N11      N      0.620733333333     0.169866666667     0.768400000000    -0.048206   
N12      N      0.342833333333     0.101200000000     0.765500000000    -0.026603   
N13      N      0.662766666667     0.061966666667     0.725550000000    -0.287688   
N14      N      0.657833333333     0.270566666667     0.962750000000    -0.288935   
N15      N      0.412700000000     0.312633333333     0.749400000000    -0.167123   
N16      N      0.588166666667     0.210233333333     0.530600000000    -0.291049   
N17      N      0.491433333333     0.104333333333     0.546450000000    -0.222756   
N18      N      0.489100000000     0.248200000000     0.754950000000    -0.200086   
N19      N      0.363633333333     0.208900000000     0.847900000000    -0.201954   
N20      N      0.418666666667     0.311700000000     0.937500000000    -0.20554    
N21      N      0.367566666667     0.082233333333     0.774400000000    -0.306997   
N22      N      0.491033333333     0.095733333333     0.997600000000    -0.270598   
N23      N      0.571433333333     0.173100000000     0.730250000000    -0.237214   
N24      N      0.345500000000     0.244600000000     0.762900000000     0.003667   
N25      N      0.342166666667     0.062766666667     0.537250000000    -0.288936   
N26      N      0.508966666667     0.237600000000     0.502400000000    -0.270598   
N27      N      0.467200000000     0.069666666667     0.504150000000    -0.010338   
N28      N      0.581333333333     0.021633333333     0.562500000000    -0.205504   
N29      N      0.483200000000     0.139400000000     0.655550000000    -0.037964   
N30      N      0.467166666667     0.121133333333     0.626550000000    -0.234013   
N31      N      0.419533333333     0.126333333333     0.646200000000    -0.227102   
N32      N      0.574000000000     0.123033333333     0.628350000000    -0.230072   
N33      N      0.588333333333     0.146833333333     0.653350000000    -0.065232   
N34      N      0.396233333333     0.141033333333     0.720300000000    -0.256486   
N35      N      0.398866666667     0.174633333333     0.760650000000    -0.015533   
N36      N      0.532933333333     0.259133333333     0.966750000000    -0.093067   
N37      N      0.532800000000     0.263666666667     0.995850000000    -0.010333   
N38      N      0.454933333333     0.142666666667     0.667550000000    -0.057932   
N39      N      0.428566666667     0.160233333333     0.769750000000    -0.237216   
N40      N      0.657166666667     0.232133333333     0.734500000000    -0.026557   
N41      N      0.337233333333     0.271366666667     0.774450000000    -0.287662   
N42      N      0.587300000000     0.020700000000     0.750600000000    -0.167159   
N43      N      0.411833333333     0.123100000000     0.969400000000    -0.291048   
N44      N      0.508566666667     0.229000000000     0.953550000000    -0.222756   
N45      N      0.510900000000     0.085133333333     0.745050000000    -0.200097   
N46      N      0.636366666667     0.124433333333     0.652100000000    -0.201985   
N47      N      0.379266666667     0.163466666667     0.731600000000    -0.048208   
N48      N      0.632433333333     0.251100000000     0.725600000000    -0.307006   
N49      N      0.626000000000     0.147000000000     0.667450000000    -0.024541   
N50      N      0.654500000000     0.088733333333     0.737100000000     0.003744   
Ag1      Ag     0.561950000000     0.641600000000     0.029865000000     0.26505    
Ag2      Ag     0.338320000000     0.480236666667     0.290995000000     0.228176   
Ag3      Ag     0.451906666667     0.495376666667     0.322915000000     0.303031   
Ag4      Ag     0.632606666667     0.539296666667     0.337340000000     0.32127    
Ag5      Ag     0.604406666667     0.443156666667     0.216905000000     0.0889     
Ag6      Ag     0.491050000000     0.550633333333     0.401565000000     0.313659   
Ag7      Ag     0.438050000000     0.358400000000     0.470135000000     0.265058   
Ag8      Ag     0.449276666667     0.612533333333     0.250565000000     0.156584   
Ag9      Ag     0.548093333333     0.504623333333     0.177085000000     0.303042   
Ag10     Ag     0.550723333333     0.387466666667     0.249435000000     0.156553   
Ag11     Ag     0.367393333333     0.460703333333     0.162660000000     0.321275   
Ag12     Ag     0.395593333333     0.556843333333     0.283095000000     0.08886    
Ag13     Ag     0.508950000000     0.449366666667     0.098435000000     0.313657   
Ag14     Ag     0.661680000000     0.519763333333     0.209005000000     0.228157   
C1       C      0.406266666667     0.406233333333     0.072500000000    -0.181135   
C2       C      0.368133333333     0.340800000000     0.224300000000    -0.176868   
C3       C      0.377633333333     0.364166666667     0.249300000000     0.081093   
C4       C      0.422433333333     0.336066666667     0.274750000000     0.045853   
C5       C      0.405900000000     0.362033333333     0.276000000000    -0.16507    
C6       C      0.474366666667     0.408466666667     0.223700000000     0.028972   
C7       C      0.333433333333     0.417866666667     0.056250000000     0.09026    
C8       C      0.434933333333     0.459333333333     0.450050000000     0.077303   
C9       C      0.599300000000     0.413200000000     0.104650000000     0.026627   
C10      C      0.447333333333     0.426066666667     0.222000000000    -0.169136   
C11      C      0.604333333333     0.442100000000     0.128100000000     0.211218   
C12      C      0.378733333333     0.391066666667     0.045400000000     0.091889   
C13      C      0.466433333333     0.516166666667     0.472800000000     0.07639    
C14      C      0.641233333333     0.608000000000     0.249500000000     0.211824   
C15      C      0.617166666667     0.388233333333     0.112900000000    -0.197905   
C16      C      0.442100000000     0.512433333333     0.492900000000    -0.183294   
C17      C      0.386266666667     0.648600000000     0.224300000000     0.060952   
C18      C      0.427100000000     0.473966666667     0.244100000000     0.246002   
C19      C      0.494766666667     0.549433333333     0.475850000000     0.224085   
C20      C      0.397200000000     0.428933333333     0.092300000000     0.064127   
C21      C      0.455200000000     0.453666666667     0.243700000000     0.045894   
C22      C      0.573600000000     0.408500000000     0.075250000000    -0.203767   
C23      C      0.639966666667     0.565366666667     0.416200000000    -0.191879   
C24      C      0.544800000000     0.546333333333     0.256300000000     0.045938   
C25      C      0.392833333333     0.639966666667     0.409150000000     0.032759   
C26      C      0.525633333333     0.591533333333     0.276300000000     0.028979   
C27      C      0.666566666667     0.582133333333     0.443750000000     0.090277   
C28      C      0.537933333333     0.510833333333     0.049150000000    -0.195038   
C29      C      0.565066666667     0.540666666667     0.049950000000     0.077307   
C30      C      0.400700000000     0.586800000000     0.395350000000     0.026592   
C31      C      0.593733333333     0.593766666667     0.427500000000    -0.181134   
C32      C      0.552666666667     0.573933333333     0.278000000000    -0.169149   
C33      C      0.426400000000     0.591500000000     0.424750000000    -0.203759   
C34      C      0.621266666667     0.608933333333     0.454600000000     0.091889   
C35      C      0.533566666667     0.483833333333     0.027200000000     0.076392   
C36      C      0.572100000000     0.552500000000     0.378650000000     0.257615   
C37      C      0.358766666667     0.392000000000     0.250500000000     0.21184    
C38      C      0.557900000000     0.487566666667     0.007100000000    -0.183294   
C39      C      0.395666666667     0.557900000000     0.371900000000     0.21124    
C40      C      0.572900000000     0.526033333333     0.255900000000     0.245968   
C41      C      0.505233333333     0.450566666667     0.024150000000     0.224085   
C42      C      0.602800000000     0.571066666667     0.407700000000     0.064127   
C43      C      0.416600000000     0.482866666667     0.489900000000     0.083661   
C44      C      0.583400000000     0.517133333333     0.010100000000     0.08366    
C45      C      0.480733333333     0.553233333333     0.234700000000     0.050805   
C46      C      0.434833333333     0.620800000000     0.444850000000     0.052504   
C47      C      0.507100000000     0.535500000000     0.234750000000    -0.187546   
C48      C      0.382833333333     0.611766666667     0.387100000000    -0.19778    
C49      C      0.519266666667     0.446766666667     0.265300000000     0.050808   
C50      C      0.462066666667     0.489166666667     0.450850000000    -0.19503    
C51      C      0.492900000000     0.464500000000     0.265250000000    -0.187539   
C52      C      0.565166666667     0.379200000000     0.055150000000     0.052482   
C53      C      0.577566666667     0.663933333333     0.225250000000     0.045846   
C54      C      0.622366666667     0.635833333333     0.250700000000     0.081057   
C55      C      0.631866666667     0.659200000000     0.275700000000    -0.176853   
C56      C      0.594100000000     0.637966666667     0.224000000000    -0.165076   
C57      C      0.360033333333     0.434633333333     0.083800000000    -0.191865   
C58      C      0.427900000000     0.447500000000     0.121350000000     0.257611   
C59      C      0.607166666667     0.360033333333     0.090850000000     0.032851   
C60      C      0.613733333333     0.351400000000     0.275700000000     0.060936   
H1       H      0.635033333333     0.390500000000     0.132400000000     0.125237   
H2       H      0.477066666667     0.491033333333     0.437000000000     0.120407   
H3       H      0.432333333333     0.440733333333     0.435850000000     0.091833   
H4       H      0.430900000000     0.401700000000     0.078050000000     0.114408   
H5       H      0.423433333333     0.419366666667     0.206000000000     0.121024   
H6       H      0.561966666667     0.425200000000     0.069050000000     0.110295   
H7       H      0.385066666667     0.376666666667     0.031800000000     0.093441   
H8       H      0.444033333333     0.530300000000     0.007700000000     0.131496   
H9       H      0.619200000000     0.343300000000     0.096000000000     0.088586   
H10      H      0.544333333333     0.454400000000     0.279900000000     0.091129   
H11      H      0.547366666667     0.376333333333     0.035500000000     0.08775    
H12      H      0.499866666667     0.484033333333     0.279650000000     0.110197   
H13      H      0.641700000000     0.421566666667     0.050400000000     0.088551   
H14      H      0.353366666667     0.449633333333     0.096600000000     0.110467   
H15      H      0.620300000000     0.366900000000     0.293700000000     0.098092   
H16      H      0.651100000000     0.658333333333     0.293550000000     0.129394   
H17      H      0.558566666667     0.665533333333     0.207550000000     0.090096   
H18      H      0.400900000000     0.480500000000     0.003250000000     0.090135   
H19      H      0.467633333333     0.388700000000     0.209650000000     0.090479   
H20      H      0.586766666667     0.622266666667     0.206000000000     0.135392   
H21      H      0.441433333333     0.334466666667     0.292450000000     0.090094   
H22      H      0.413233333333     0.377733333333     0.294000000000     0.135394   
H23      H      0.532366666667     0.611300000000     0.290350000000     0.090476   
H24      H      0.358300000000     0.578433333333     0.449600000000     0.088554   
H25      H      0.522933333333     0.508966666667     0.063000000000     0.120408   
H26      H      0.567666666667     0.559266666667     0.064150000000     0.091833   
H27      H      0.569100000000     0.598300000000     0.421950000000     0.114408   
H28      H      0.438033333333     0.574800000000     0.430950000000     0.11029    
H29      H      0.614933333333     0.623333333333     0.468200000000     0.09344    
H30      H      0.364966666667     0.609500000000     0.367600000000     0.125221   
H31      H      0.576566666667     0.580633333333     0.294000000000     0.121027   
H32      H      0.599100000000     0.519500000000     0.496750000000     0.090135   
H33      H      0.455666666667     0.545600000000     0.220100000000     0.091127   
H34      H      0.452633333333     0.623666666667     0.464500000000     0.087742   
H35      H      0.500133333333     0.515966666667     0.220350000000     0.110198   
H36      H      0.380800000000     0.656700000000     0.404000000000     0.088591   
H37      H      0.646633333333     0.550366666667     0.403400000000     0.11047    
H38      H      0.379700000000     0.633100000000     0.206300000000     0.098093   
H39      H      0.555966666667     0.469700000000     0.492300000000     0.131494   
H40      H      0.348900000000     0.341666666667     0.206450000000     0.129396   
N1       N      0.516800000000     0.527266666667     0.344450000000    -0.03796    
N2       N      0.467066666667     0.407533333333     0.033250000000    -0.09307    
N3       N      0.601133333333     0.492033333333     0.239350000000    -0.015545   
N4       N      0.603766666667     0.525633333333     0.279700000000    -0.25648    
N5       N      0.532833333333     0.545533333333     0.373450000000    -0.234015   
N6       N      0.426000000000     0.543633333333     0.371650000000    -0.230092   
N7       N      0.580466666667     0.540333333333     0.353800000000    -0.227102   
N8       N      0.545066666667     0.524000000000     0.332450000000    -0.057932   
N9       N      0.411666666667     0.519833333333     0.346650000000    -0.06522    
N10      N      0.374000000000     0.519666666667     0.332550000000    -0.024584   
N11      N      0.620733333333     0.503200000000     0.268400000000    -0.048206   
N12      N      0.342833333333     0.434533333333     0.265500000000    -0.026603   
N13      N      0.662766666667     0.395300000000     0.225550000000    -0.287688   
N14      N      0.657833333333     0.603900000000     0.462750000000    -0.288935   
N15      N      0.412700000000     0.645966666667     0.249400000000    -0.167123   
N16      N      0.588166666667     0.543566666667     0.030600000000    -0.291049   
N17      N      0.491433333333     0.437666666667     0.046450000000    -0.222756   
N18      N      0.489100000000     0.581533333333     0.254950000000    -0.200086   
N19      N      0.363633333333     0.542233333333     0.347900000000    -0.201954   
N20      N      0.418666666667     0.645033333333     0.437500000000    -0.20554    
N21      N      0.367566666667     0.415566666667     0.274400000000    -0.306997   
N22      N      0.491033333333     0.429066666667     0.497600000000    -0.270598   
N23      N      0.571433333333     0.506433333333     0.230250000000    -0.237214   
N24      N      0.345500000000     0.577933333333     0.262900000000     0.003667   
N25      N      0.342166666667     0.396100000000     0.037250000000    -0.288936   
N26      N      0.508966666667     0.570933333333     0.002400000000    -0.270598   
N27      N      0.467200000000     0.403000000000     0.004150000000    -0.010338   
N28      N      0.581333333333     0.354966666667     0.062500000000    -0.205504   
N29      N      0.483200000000     0.472733333333     0.155550000000    -0.037964   
N30      N      0.467166666667     0.454466666667     0.126550000000    -0.234013   
N31      N      0.419533333333     0.459666666667     0.146200000000    -0.227102   
N32      N      0.574000000000     0.456366666667     0.128350000000    -0.230072   
N33      N      0.588333333333     0.480166666667     0.153350000000    -0.065232   
N34      N      0.396233333333     0.474366666667     0.220300000000    -0.256486   
N35      N      0.398866666667     0.507966666667     0.260650000000    -0.015533   
N36      N      0.532933333333     0.592466666667     0.466750000000    -0.093067   
N37      N      0.532800000000     0.597000000000     0.495850000000    -0.010333   
N38      N      0.454933333333     0.476000000000     0.167550000000    -0.057932   
N39      N      0.428566666667     0.493566666667     0.269750000000    -0.237216   
N40      N      0.657166666667     0.565466666667     0.234500000000    -0.026557   
N41      N      0.337233333333     0.604700000000     0.274450000000    -0.287662   
N42      N      0.587300000000     0.354033333333     0.250600000000    -0.167159   
N43      N      0.411833333333     0.456433333333     0.469400000000    -0.291048   
N44      N      0.508566666667     0.562333333333     0.453550000000    -0.222756   
N45      N      0.510900000000     0.418466666667     0.245050000000    -0.200097   
N46      N      0.636366666667     0.457766666667     0.152100000000    -0.201985   
N47      N      0.379266666667     0.496800000000     0.231600000000    -0.048208   
N48      N      0.632433333333     0.584433333333     0.225600000000    -0.307006   
N49      N      0.626000000000     0.480333333333     0.167450000000    -0.024541   
N50      N      0.654500000000     0.422066666667     0.237100000000     0.003744   
Ag1      Ag     0.561950000000     0.641600000000     0.529865000000     0.26505    
Ag2      Ag     0.338320000000     0.480236666667     0.790995000000     0.228176   
Ag3      Ag     0.451906666667     0.495376666667     0.822915000000     0.303031   
Ag4      Ag     0.632606666667     0.539296666667     0.837340000000     0.32127    
Ag5      Ag     0.604406666667     0.443156666667     0.716905000000     0.0889     
Ag6      Ag     0.491050000000     0.550633333333     0.901565000000     0.313659   
Ag7      Ag     0.438050000000     0.358400000000     0.970135000000     0.265058   
Ag8      Ag     0.449276666667     0.612533333333     0.750565000000     0.156584   
Ag9      Ag     0.548093333333     0.504623333333     0.677085000000     0.303042   
Ag10     Ag     0.550723333333     0.387466666667     0.749435000000     0.156553   
Ag11     Ag     0.367393333333     0.460703333333     0.662660000000     0.321275   
Ag12     Ag     0.395593333333     0.556843333333     0.783095000000     0.08886    
Ag13     Ag     0.508950000000     0.449366666667     0.598435000000     0.313657   
Ag14     Ag     0.661680000000     0.519763333333     0.709005000000     0.228157   
C1       C      0.406266666667     0.406233333333     0.572500000000    -0.181135   
C2       C      0.368133333333     0.340800000000     0.724300000000    -0.176868   
C3       C      0.377633333333     0.364166666667     0.749300000000     0.081093   
C4       C      0.422433333333     0.336066666667     0.774750000000     0.045853   
C5       C      0.405900000000     0.362033333333     0.776000000000    -0.16507    
C6       C      0.474366666667     0.408466666667     0.723700000000     0.028972   
C7       C      0.333433333333     0.417866666667     0.556250000000     0.09026    
C8       C      0.434933333333     0.459333333333     0.950050000000     0.077303   
C9       C      0.599300000000     0.413200000000     0.604650000000     0.026627   
C10      C      0.447333333333     0.426066666667     0.722000000000    -0.169136   
C11      C      0.604333333333     0.442100000000     0.628100000000     0.211218   
C12      C      0.378733333333     0.391066666667     0.545400000000     0.091889   
C13      C      0.466433333333     0.516166666667     0.972800000000     0.07639    
C14      C      0.641233333333     0.608000000000     0.749500000000     0.211824   
C15      C      0.617166666667     0.388233333333     0.612900000000    -0.197905   
C16      C      0.442100000000     0.512433333333     0.992900000000    -0.183294   
C17      C      0.386266666667     0.648600000000     0.724300000000     0.060952   
C18      C      0.427100000000     0.473966666667     0.744100000000     0.246002   
C19      C      0.494766666667     0.549433333333     0.975850000000     0.224085   
C20      C      0.397200000000     0.428933333333     0.592300000000     0.064127   
C21      C      0.455200000000     0.453666666667     0.743700000000     0.045894   
C22      C      0.573600000000     0.408500000000     0.575250000000    -0.203767   
C23      C      0.639966666667     0.565366666667     0.916200000000    -0.191879   
C24      C      0.544800000000     0.546333333333     0.756300000000     0.045938   
C25      C      0.392833333333     0.639966666667     0.909150000000     0.032759   
C26      C      0.525633333333     0.591533333333     0.776300000000     0.028979   
C27      C      0.666566666667     0.582133333333     0.943750000000     0.090277   
C28      C      0.537933333333     0.510833333333     0.549150000000    -0.195038   
C29      C      0.565066666667     0.540666666667     0.549950000000     0.077307   
C30      C      0.400700000000     0.586800000000     0.895350000000     0.026592   
C31      C      0.593733333333     0.593766666667     0.927500000000    -0.181134   
C32      C      0.552666666667     0.573933333333     0.778000000000    -0.169149   
C33      C      0.426400000000     0.591500000000     0.924750000000    -0.203759   
C34      C      0.621266666667     0.608933333333     0.954600000000     0.091889   
C35      C      0.533566666667     0.483833333333     0.527200000000     0.076392   
C36      C      0.572100000000     0.552500000000     0.878650000000     0.257615   
C37      C      0.358766666667     0.392000000000     0.750500000000     0.21184    
C38      C      0.557900000000     0.487566666667     0.507100000000    -0.183294   
C39      C      0.395666666667     0.557900000000     0.871900000000     0.21124    
C40      C      0.572900000000     0.526033333333     0.755900000000     0.245968   
C41      C      0.505233333333     0.450566666667     0.524150000000     0.224085   
C42      C      0.602800000000     0.571066666667     0.907700000000     0.064127   
C43      C      0.416600000000     0.482866666667     0.989900000000     0.083661   
C44      C      0.583400000000     0.517133333333     0.510100000000     0.08366    
C45      C      0.480733333333     0.553233333333     0.734700000000     0.050805   
C46      C      0.434833333333     0.620800000000     0.944850000000     0.052504   
C47      C      0.507100000000     0.535500000000     0.734750000000    -0.187546   
C48      C      0.382833333333     0.611766666667     0.887100000000    -0.19778    
C49      C      0.519266666667     0.446766666667     0.765300000000     0.050808   
C50      C      0.462066666667     0.489166666667     0.950850000000    -0.19503    
C51      C      0.492900000000     0.464500000000     0.765250000000    -0.187539   
C52      C      0.565166666667     0.379200000000     0.555150000000     0.052482   
C53      C      0.577566666667     0.663933333333     0.725250000000     0.045846   
C54      C      0.622366666667     0.635833333333     0.750700000000     0.081057   
C55      C      0.631866666667     0.659200000000     0.775700000000    -0.176853   
C56      C      0.594100000000     0.637966666667     0.724000000000    -0.165076   
C57      C      0.360033333333     0.434633333333     0.583800000000    -0.191865   
C58      C      0.427900000000     0.447500000000     0.621350000000     0.257611   
C59      C      0.607166666667     0.360033333333     0.590850000000     0.032851   
C60      C      0.613733333333     0.351400000000     0.775700000000     0.060936   
H1       H      0.635033333333     0.390500000000     0.632400000000     0.125237   
H2       H      0.477066666667     0.491033333333     0.937000000000     0.120407   
H3       H      0.432333333333     0.440733333333     0.935850000000     0.091833   
H4       H      0.430900000000     0.401700000000     0.578050000000     0.114408   
H5       H      0.423433333333     0.419366666667     0.706000000000     0.121024   
H6       H      0.561966666667     0.425200000000     0.569050000000     0.110295   
H7       H      0.385066666667     0.376666666667     0.531800000000     0.093441   
H8       H      0.444033333333     0.530300000000     0.507700000000     0.131496   
H9       H      0.619200000000     0.343300000000     0.596000000000     0.088586   
H10      H      0.544333333333     0.454400000000     0.779900000000     0.091129   
H11      H      0.547366666667     0.376333333333     0.535500000000     0.08775    
H12      H      0.499866666667     0.484033333333     0.779650000000     0.110197   
H13      H      0.641700000000     0.421566666667     0.550400000000     0.088551   
H14      H      0.353366666667     0.449633333333     0.596600000000     0.110467   
H15      H      0.620300000000     0.366900000000     0.793700000000     0.098092   
H16      H      0.651100000000     0.658333333333     0.793550000000     0.129394   
H17      H      0.558566666667     0.665533333333     0.707550000000     0.090096   
H18      H      0.400900000000     0.480500000000     0.503250000000     0.090135   
H19      H      0.467633333333     0.388700000000     0.709650000000     0.090479   
H20      H      0.586766666667     0.622266666667     0.706000000000     0.135392   
H21      H      0.441433333333     0.334466666667     0.792450000000     0.090094   
H22      H      0.413233333333     0.377733333333     0.794000000000     0.135394   
H23      H      0.532366666667     0.611300000000     0.790350000000     0.090476   
H24      H      0.358300000000     0.578433333333     0.949600000000     0.088554   
H25      H      0.522933333333     0.508966666667     0.563000000000     0.120408   
H26      H      0.567666666667     0.559266666667     0.564150000000     0.091833   
H27      H      0.569100000000     0.598300000000     0.921950000000     0.114408   
H28      H      0.438033333333     0.574800000000     0.930950000000     0.11029    
H29      H      0.614933333333     0.623333333333     0.968200000000     0.09344    
H30      H      0.364966666667     0.609500000000     0.867600000000     0.125221   
H31      H      0.576566666667     0.580633333333     0.794000000000     0.121027   
H32      H      0.599100000000     0.519500000000     0.996750000000     0.090135   
H33      H      0.455666666667     0.545600000000     0.720100000000     0.091127   
H34      H      0.452633333333     0.623666666667     0.964500000000     0.087742   
H35      H      0.500133333333     0.515966666667     0.720350000000     0.110198   
H36      H      0.380800000000     0.656700000000     0.904000000000     0.088591   
H37      H      0.646633333333     0.550366666667     0.903400000000     0.11047    
H38      H      0.379700000000     0.633100000000     0.706300000000     0.098093   
H39      H      0.555966666667     0.469700000000     0.992300000000     0.131494   
H40      H      0.348900000000     0.341666666667     0.706450000000     0.129396   
N1       N      0.516800000000     0.527266666667     0.844450000000    -0.03796    
N2       N      0.467066666667     0.407533333333     0.533250000000    -0.09307    
N3       N      0.601133333333     0.492033333333     0.739350000000    -0.015545   
N4       N      0.603766666667     0.525633333333     0.779700000000    -0.25648    
N5       N      0.532833333333     0.545533333333     0.873450000000    -0.234015   
N6       N      0.426000000000     0.543633333333     0.871650000000    -0.230092   
N7       N      0.580466666667     0.540333333333     0.853800000000    -0.227102   
N8       N      0.545066666667     0.524000000000     0.832450000000    -0.057932   
N9       N      0.411666666667     0.519833333333     0.846650000000    -0.06522    
N10      N      0.374000000000     0.519666666667     0.832550000000    -0.024584   
N11      N      0.620733333333     0.503200000000     0.768400000000    -0.048206   
N12      N      0.342833333333     0.434533333333     0.765500000000    -0.026603   
N13      N      0.662766666667     0.395300000000     0.725550000000    -0.287688   
N14      N      0.657833333333     0.603900000000     0.962750000000    -0.288935   
N15      N      0.412700000000     0.645966666667     0.749400000000    -0.167123   
N16      N      0.588166666667     0.543566666667     0.530600000000    -0.291049   
N17      N      0.491433333333     0.437666666667     0.546450000000    -0.222756   
N18      N      0.489100000000     0.581533333333     0.754950000000    -0.200086   
N19      N      0.363633333333     0.542233333333     0.847900000000    -0.201954   
N20      N      0.418666666667     0.645033333333     0.937500000000    -0.20554    
N21      N      0.367566666667     0.415566666667     0.774400000000    -0.306997   
N22      N      0.491033333333     0.429066666667     0.997600000000    -0.270598   
N23      N      0.571433333333     0.506433333333     0.730250000000    -0.237214   
N24      N      0.345500000000     0.577933333333     0.762900000000     0.003667   
N25      N      0.342166666667     0.396100000000     0.537250000000    -0.288936   
N26      N      0.508966666667     0.570933333333     0.502400000000    -0.270598   
N27      N      0.467200000000     0.403000000000     0.504150000000    -0.010338   
N28      N      0.581333333333     0.354966666667     0.562500000000    -0.205504   
N29      N      0.483200000000     0.472733333333     0.655550000000    -0.037964   
N30      N      0.467166666667     0.454466666667     0.626550000000    -0.234013   
N31      N      0.419533333333     0.459666666667     0.646200000000    -0.227102   
N32      N      0.574000000000     0.456366666667     0.628350000000    -0.230072   
N33      N      0.588333333333     0.480166666667     0.653350000000    -0.065232   
N34      N      0.396233333333     0.474366666667     0.720300000000    -0.256486   
N35      N      0.398866666667     0.507966666667     0.760650000000    -0.015533   
N36      N      0.532933333333     0.592466666667     0.966750000000    -0.093067   
N37      N      0.532800000000     0.597000000000     0.995850000000    -0.010333   
N38      N      0.454933333333     0.476000000000     0.667550000000    -0.057932   
N39      N      0.428566666667     0.493566666667     0.769750000000    -0.237216   
N40      N      0.657166666667     0.565466666667     0.734500000000    -0.026557   
N41      N      0.337233333333     0.604700000000     0.774450000000    -0.287662   
N42      N      0.587300000000     0.354033333333     0.750600000000    -0.167159   
N43      N      0.411833333333     0.456433333333     0.969400000000    -0.291048   
N44      N      0.508566666667     0.562333333333     0.953550000000    -0.222756   
N45      N      0.510900000000     0.418466666667     0.745050000000    -0.200097   
N46      N      0.636366666667     0.457766666667     0.652100000000    -0.201985   
N47      N      0.379266666667     0.496800000000     0.731600000000    -0.048208   
N48      N      0.632433333333     0.584433333333     0.725600000000    -0.307006   
N49      N      0.626000000000     0.480333333333     0.667450000000    -0.024541   
N50      N      0.654500000000     0.422066666667     0.737100000000     0.003744   
Ag1      Ag     0.561950000000     0.974933333333     0.029865000000     0.26505    
Ag2      Ag     0.338320000000     0.813570000000     0.290995000000     0.228176   
Ag3      Ag     0.451906666667     0.828710000000     0.322915000000     0.303031   
Ag4      Ag     0.632606666667     0.872630000000     0.337340000000     0.32127    
Ag5      Ag     0.604406666667     0.776490000000     0.216905000000     0.0889     
Ag6      Ag     0.491050000000     0.883966666667     0.401565000000     0.313659   
Ag7      Ag     0.438050000000     0.691733333333     0.470135000000     0.265058   
Ag8      Ag     0.449276666667     0.945866666667     0.250565000000     0.156584   
Ag9      Ag     0.548093333333     0.837956666667     0.177085000000     0.303042   
Ag10     Ag     0.550723333333     0.720800000000     0.249435000000     0.156553   
Ag11     Ag     0.367393333333     0.794036666667     0.162660000000     0.321275   
Ag12     Ag     0.395593333333     0.890176666667     0.283095000000     0.08886    
Ag13     Ag     0.508950000000     0.782700000000     0.098435000000     0.313657   
Ag14     Ag     0.661680000000     0.853096666667     0.209005000000     0.228157   
C1       C      0.406266666667     0.739566666667     0.072500000000    -0.181135   
C2       C      0.368133333333     0.674133333333     0.224300000000    -0.176868   
C3       C      0.377633333333     0.697500000000     0.249300000000     0.081093   
C4       C      0.422433333333     0.669400000000     0.274750000000     0.045853   
C5       C      0.405900000000     0.695366666667     0.276000000000    -0.16507    
C6       C      0.474366666667     0.741800000000     0.223700000000     0.028972   
C7       C      0.333433333333     0.751200000000     0.056250000000     0.09026    
C8       C      0.434933333333     0.792666666667     0.450050000000     0.077303   
C9       C      0.599300000000     0.746533333333     0.104650000000     0.026627   
C10      C      0.447333333333     0.759400000000     0.222000000000    -0.169136   
C11      C      0.604333333333     0.775433333333     0.128100000000     0.211218   
C12      C      0.378733333333     0.724400000000     0.045400000000     0.091889   
C13      C      0.466433333333     0.849500000000     0.472800000000     0.07639    
C14      C      0.641233333333     0.941333333333     0.249500000000     0.211824   
C15      C      0.617166666667     0.721566666667     0.112900000000    -0.197905   
C16      C      0.442100000000     0.845766666667     0.492900000000    -0.183294   
C17      C      0.386266666667     0.981933333333     0.224300000000     0.060952   
C18      C      0.427100000000     0.807300000000     0.244100000000     0.246002   
C19      C      0.494766666667     0.882766666667     0.475850000000     0.224085   
C20      C      0.397200000000     0.762266666667     0.092300000000     0.064127   
C21      C      0.455200000000     0.787000000000     0.243700000000     0.045894   
C22      C      0.573600000000     0.741833333333     0.075250000000    -0.203767   
C23      C      0.639966666667     0.898700000000     0.416200000000    -0.191879   
C24      C      0.544800000000     0.879666666667     0.256300000000     0.045938   
C25      C      0.392833333333     0.973300000000     0.409150000000     0.032759   
C26      C      0.525633333333     0.924866666667     0.276300000000     0.028979   
C27      C      0.666566666667     0.915466666667     0.443750000000     0.090277   
C28      C      0.537933333333     0.844166666667     0.049150000000    -0.195038   
C29      C      0.565066666667     0.874000000000     0.049950000000     0.077307   
C30      C      0.400700000000     0.920133333333     0.395350000000     0.026592   
C31      C      0.593733333333     0.927100000000     0.427500000000    -0.181134   
C32      C      0.552666666667     0.907266666667     0.278000000000    -0.169149   
C33      C      0.426400000000     0.924833333333     0.424750000000    -0.203759   
C34      C      0.621266666667     0.942266666667     0.454600000000     0.091889   
C35      C      0.533566666667     0.817166666667     0.027200000000     0.076392   
C36      C      0.572100000000     0.885833333333     0.378650000000     0.257615   
C37      C      0.358766666667     0.725333333333     0.250500000000     0.21184    
C38      C      0.557900000000     0.820900000000     0.007100000000    -0.183294   
C39      C      0.395666666667     0.891233333333     0.371900000000     0.21124    
C40      C      0.572900000000     0.859366666667     0.255900000000     0.245968   
C41      C      0.505233333333     0.783900000000     0.024150000000     0.224085   
C42      C      0.602800000000     0.904400000000     0.407700000000     0.064127   
C43      C      0.416600000000     0.816200000000     0.489900000000     0.083661   
C44      C      0.583400000000     0.850466666667     0.010100000000     0.08366    
C45      C      0.480733333333     0.886566666667     0.234700000000     0.050805   
C46      C      0.434833333333     0.954133333333     0.444850000000     0.052504   
C47      C      0.507100000000     0.868833333333     0.234750000000    -0.187546   
C48      C      0.382833333333     0.945100000000     0.387100000000    -0.19778    
C49      C      0.519266666667     0.780100000000     0.265300000000     0.050808   
C50      C      0.462066666667     0.822500000000     0.450850000000    -0.19503    
C51      C      0.492900000000     0.797833333333     0.265250000000    -0.187539   
C52      C      0.565166666667     0.712533333333     0.055150000000     0.052482   
C53      C      0.577566666667     0.997266666667     0.225250000000     0.045846   
C54      C      0.622366666667     0.969166666667     0.250700000000     0.081057   
C55      C      0.631866666667     0.992533333333     0.275700000000    -0.176853   
C56      C      0.594100000000     0.971300000000     0.224000000000    -0.165076   
C57      C      0.360033333333     0.767966666667     0.083800000000    -0.191865   
C58      C      0.427900000000     0.780833333333     0.121350000000     0.257611   
C59      C      0.607166666667     0.693366666667     0.090850000000     0.032851   
C60      C      0.613733333333     0.684733333333     0.275700000000     0.060936   
H1       H      0.635033333333     0.723833333333     0.132400000000     0.125237   
H2       H      0.477066666667     0.824366666667     0.437000000000     0.120407   
H3       H      0.432333333333     0.774066666667     0.435850000000     0.091833   
H4       H      0.430900000000     0.735033333333     0.078050000000     0.114408   
H5       H      0.423433333333     0.752700000000     0.206000000000     0.121024   
H6       H      0.561966666667     0.758533333333     0.069050000000     0.110295   
H7       H      0.385066666667     0.710000000000     0.031800000000     0.093441   
H8       H      0.444033333333     0.863633333333     0.007700000000     0.131496   
H9       H      0.619200000000     0.676633333333     0.096000000000     0.088586   
H10      H      0.544333333333     0.787733333333     0.279900000000     0.091129   
H11      H      0.547366666667     0.709666666667     0.035500000000     0.08775    
H12      H      0.499866666667     0.817366666667     0.279650000000     0.110197   
H13      H      0.641700000000     0.754900000000     0.050400000000     0.088551   
H14      H      0.353366666667     0.782966666667     0.096600000000     0.110467   
H15      H      0.620300000000     0.700233333333     0.293700000000     0.098092   
H16      H      0.651100000000     0.991666666667     0.293550000000     0.129394   
H17      H      0.558566666667     0.998866666667     0.207550000000     0.090096   
H18      H      0.400900000000     0.813833333333     0.003250000000     0.090135   
H19      H      0.467633333333     0.722033333333     0.209650000000     0.090479   
H20      H      0.586766666667     0.955600000000     0.206000000000     0.135392   
H21      H      0.441433333333     0.667800000000     0.292450000000     0.090094   
H22      H      0.413233333333     0.711066666667     0.294000000000     0.135394   
H23      H      0.532366666667     0.944633333333     0.290350000000     0.090476   
H24      H      0.358300000000     0.911766666667     0.449600000000     0.088554   
H25      H      0.522933333333     0.842300000000     0.063000000000     0.120408   
H26      H      0.567666666667     0.892600000000     0.064150000000     0.091833   
H27      H      0.569100000000     0.931633333333     0.421950000000     0.114408   
H28      H      0.438033333333     0.908133333333     0.430950000000     0.11029    
H29      H      0.614933333333     0.956666666667     0.468200000000     0.09344    
H30      H      0.364966666667     0.942833333333     0.367600000000     0.125221   
H31      H      0.576566666667     0.913966666667     0.294000000000     0.121027   
H32      H      0.599100000000     0.852833333333     0.496750000000     0.090135   
H33      H      0.455666666667     0.878933333333     0.220100000000     0.091127   
H34      H      0.452633333333     0.957000000000     0.464500000000     0.087742   
H35      H      0.500133333333     0.849300000000     0.220350000000     0.110198   
H36      H      0.380800000000     0.990033333333     0.404000000000     0.088591   
H37      H      0.646633333333     0.883700000000     0.403400000000     0.11047    
H38      H      0.379700000000     0.966433333333     0.206300000000     0.098093   
H39      H      0.555966666667     0.803033333333     0.492300000000     0.131494   
H40      H      0.348900000000     0.675000000000     0.206450000000     0.129396   
N1       N      0.516800000000     0.860600000000     0.344450000000    -0.03796    
N2       N      0.467066666667     0.740866666667     0.033250000000    -0.09307    
N3       N      0.601133333333     0.825366666667     0.239350000000    -0.015545   
N4       N      0.603766666667     0.858966666667     0.279700000000    -0.25648    
N5       N      0.532833333333     0.878866666667     0.373450000000    -0.234015   
N6       N      0.426000000000     0.876966666667     0.371650000000    -0.230092   
N7       N      0.580466666667     0.873666666667     0.353800000000    -0.227102   
N8       N      0.545066666667     0.857333333333     0.332450000000    -0.057932   
N9       N      0.411666666667     0.853166666667     0.346650000000    -0.06522    
N10      N      0.374000000000     0.853000000000     0.332550000000    -0.024584   
N11      N      0.620733333333     0.836533333333     0.268400000000    -0.048206   
N12      N      0.342833333333     0.767866666667     0.265500000000    -0.026603   
N13      N      0.662766666667     0.728633333333     0.225550000000    -0.287688   
N14      N      0.657833333333     0.937233333333     0.462750000000    -0.288935   
N15      N      0.412700000000     0.979300000000     0.249400000000    -0.167123   
N16      N      0.588166666667     0.876900000000     0.030600000000    -0.291049   
N17      N      0.491433333333     0.771000000000     0.046450000000    -0.222756   
N18      N      0.489100000000     0.914866666667     0.254950000000    -0.200086   
N19      N      0.363633333333     0.875566666667     0.347900000000    -0.201954   
N20      N      0.418666666667     0.978366666667     0.437500000000    -0.20554    
N21      N      0.367566666667     0.748900000000     0.274400000000    -0.306997   
N22      N      0.491033333333     0.762400000000     0.497600000000    -0.270598   
N23      N      0.571433333333     0.839766666667     0.230250000000    -0.237214   
N24      N      0.345500000000     0.911266666667     0.262900000000     0.003667   
N25      N      0.342166666667     0.729433333333     0.037250000000    -0.288936   
N26      N      0.508966666667     0.904266666667     0.002400000000    -0.270598   
N27      N      0.467200000000     0.736333333333     0.004150000000    -0.010338   
N28      N      0.581333333333     0.688300000000     0.062500000000    -0.205504   
N29      N      0.483200000000     0.806066666667     0.155550000000    -0.037964   
N30      N      0.467166666667     0.787800000000     0.126550000000    -0.234013   
N31      N      0.419533333333     0.793000000000     0.146200000000    -0.227102   
N32      N      0.574000000000     0.789700000000     0.128350000000    -0.230072   
N33      N      0.588333333333     0.813500000000     0.153350000000    -0.065232   
N34      N      0.396233333333     0.807700000000     0.220300000000    -0.256486   
N35      N      0.398866666667     0.841300000000     0.260650000000    -0.015533   
N36      N      0.532933333333     0.925800000000     0.466750000000    -0.093067   
N37      N      0.532800000000     0.930333333333     0.495850000000    -0.010333   
N38      N      0.454933333333     0.809333333333     0.167550000000    -0.057932   
N39      N      0.428566666667     0.826900000000     0.269750000000    -0.237216   
N40      N      0.657166666667     0.898800000000     0.234500000000    -0.026557   
N41      N      0.337233333333     0.938033333333     0.274450000000    -0.287662   
N42      N      0.587300000000     0.687366666667     0.250600000000    -0.167159   
N43      N      0.411833333333     0.789766666667     0.469400000000    -0.291048   
N44      N      0.508566666667     0.895666666667     0.453550000000    -0.222756   
N45      N      0.510900000000     0.751800000000     0.245050000000    -0.200097   
N46      N      0.636366666667     0.791100000000     0.152100000000    -0.201985   
N47      N      0.379266666667     0.830133333333     0.231600000000    -0.048208   
N48      N      0.632433333333     0.917766666667     0.225600000000    -0.307006   
N49      N      0.626000000000     0.813666666667     0.167450000000    -0.024541   
N50      N      0.654500000000     0.755400000000     0.237100000000     0.003744   
Ag1      Ag     0.561950000000     0.974933333333     0.529865000000     0.26505    
Ag2      Ag     0.338320000000     0.813570000000     0.790995000000     0.228176   
Ag3      Ag     0.451906666667     0.828710000000     0.822915000000     0.303031   
Ag4      Ag     0.632606666667     0.872630000000     0.837340000000     0.32127    
Ag5      Ag     0.604406666667     0.776490000000     0.716905000000     0.0889     
Ag6      Ag     0.491050000000     0.883966666667     0.901565000000     0.313659   
Ag7      Ag     0.438050000000     0.691733333333     0.970135000000     0.265058   
Ag8      Ag     0.449276666667     0.945866666667     0.750565000000     0.156584   
Ag9      Ag     0.548093333333     0.837956666667     0.677085000000     0.303042   
Ag10     Ag     0.550723333333     0.720800000000     0.749435000000     0.156553   
Ag11     Ag     0.367393333333     0.794036666667     0.662660000000     0.321275   
Ag12     Ag     0.395593333333     0.890176666667     0.783095000000     0.08886    
Ag13     Ag     0.508950000000     0.782700000000     0.598435000000     0.313657   
Ag14     Ag     0.661680000000     0.853096666667     0.709005000000     0.228157   
C1       C      0.406266666667     0.739566666667     0.572500000000    -0.181135   
C2       C      0.368133333333     0.674133333333     0.724300000000    -0.176868   
C3       C      0.377633333333     0.697500000000     0.749300000000     0.081093   
C4       C      0.422433333333     0.669400000000     0.774750000000     0.045853   
C5       C      0.405900000000     0.695366666667     0.776000000000    -0.16507    
C6       C      0.474366666667     0.741800000000     0.723700000000     0.028972   
C7       C      0.333433333333     0.751200000000     0.556250000000     0.09026    
C8       C      0.434933333333     0.792666666667     0.950050000000     0.077303   
C9       C      0.599300000000     0.746533333333     0.604650000000     0.026627   
C10      C      0.447333333333     0.759400000000     0.722000000000    -0.169136   
C11      C      0.604333333333     0.775433333333     0.628100000000     0.211218   
C12      C      0.378733333333     0.724400000000     0.545400000000     0.091889   
C13      C      0.466433333333     0.849500000000     0.972800000000     0.07639    
C14      C      0.641233333333     0.941333333333     0.749500000000     0.211824   
C15      C      0.617166666667     0.721566666667     0.612900000000    -0.197905   
C16      C      0.442100000000     0.845766666667     0.992900000000    -0.183294   
C17      C      0.386266666667     0.981933333333     0.724300000000     0.060952   
C18      C      0.427100000000     0.807300000000     0.744100000000     0.246002   
C19      C      0.494766666667     0.882766666667     0.975850000000     0.224085   
C20      C      0.397200000000     0.762266666667     0.592300000000     0.064127   
C21      C      0.455200000000     0.787000000000     0.743700000000     0.045894   
C22      C      0.573600000000     0.741833333333     0.575250000000    -0.203767   
C23      C      0.639966666667     0.898700000000     0.916200000000    -0.191879   
C24      C      0.544800000000     0.879666666667     0.756300000000     0.045938   
C25      C      0.392833333333     0.973300000000     0.909150000000     0.032759   
C26      C      0.525633333333     0.924866666667     0.776300000000     0.028979   
C27      C      0.666566666667     0.915466666667     0.943750000000     0.090277   
C28      C      0.537933333333     0.844166666667     0.549150000000    -0.195038   
C29      C      0.565066666667     0.874000000000     0.549950000000     0.077307   
C30      C      0.400700000000     0.920133333333     0.895350000000     0.026592   
C31      C      0.593733333333     0.927100000000     0.927500000000    -0.181134   
C32      C      0.552666666667     0.907266666667     0.778000000000    -0.169149   
C33      C      0.426400000000     0.924833333333     0.924750000000    -0.203759   
C34      C      0.621266666667     0.942266666667     0.954600000000     0.091889   
C35      C      0.533566666667     0.817166666667     0.527200000000     0.076392   
C36      C      0.572100000000     0.885833333333     0.878650000000     0.257615   
C37      C      0.358766666667     0.725333333333     0.750500000000     0.21184    
C38      C      0.557900000000     0.820900000000     0.507100000000    -0.183294   
C39      C      0.395666666667     0.891233333333     0.871900000000     0.21124    
C40      C      0.572900000000     0.859366666667     0.755900000000     0.245968   
C41      C      0.505233333333     0.783900000000     0.524150000000     0.224085   
C42      C      0.602800000000     0.904400000000     0.907700000000     0.064127   
C43      C      0.416600000000     0.816200000000     0.989900000000     0.083661   
C44      C      0.583400000000     0.850466666667     0.510100000000     0.08366    
C45      C      0.480733333333     0.886566666667     0.734700000000     0.050805   
C46      C      0.434833333333     0.954133333333     0.944850000000     0.052504   
C47      C      0.507100000000     0.868833333333     0.734750000000    -0.187546   
C48      C      0.382833333333     0.945100000000     0.887100000000    -0.19778    
C49      C      0.519266666667     0.780100000000     0.765300000000     0.050808   
C50      C      0.462066666667     0.822500000000     0.950850000000    -0.19503    
C51      C      0.492900000000     0.797833333333     0.765250000000    -0.187539   
C52      C      0.565166666667     0.712533333333     0.555150000000     0.052482   
C53      C      0.577566666667     0.997266666667     0.725250000000     0.045846   
C54      C      0.622366666667     0.969166666667     0.750700000000     0.081057   
C55      C      0.631866666667     0.992533333333     0.775700000000    -0.176853   
C56      C      0.594100000000     0.971300000000     0.724000000000    -0.165076   
C57      C      0.360033333333     0.767966666667     0.583800000000    -0.191865   
C58      C      0.427900000000     0.780833333333     0.621350000000     0.257611   
C59      C      0.607166666667     0.693366666667     0.590850000000     0.032851   
C60      C      0.613733333333     0.684733333333     0.775700000000     0.060936   
H1       H      0.635033333333     0.723833333333     0.632400000000     0.125237   
H2       H      0.477066666667     0.824366666667     0.937000000000     0.120407   
H3       H      0.432333333333     0.774066666667     0.935850000000     0.091833   
H4       H      0.430900000000     0.735033333333     0.578050000000     0.114408   
H5       H      0.423433333333     0.752700000000     0.706000000000     0.121024   
H6       H      0.561966666667     0.758533333333     0.569050000000     0.110295   
H7       H      0.385066666667     0.710000000000     0.531800000000     0.093441   
H8       H      0.444033333333     0.863633333333     0.507700000000     0.131496   
H9       H      0.619200000000     0.676633333333     0.596000000000     0.088586   
H10      H      0.544333333333     0.787733333333     0.779900000000     0.091129   
H11      H      0.547366666667     0.709666666667     0.535500000000     0.08775    
H12      H      0.499866666667     0.817366666667     0.779650000000     0.110197   
H13      H      0.641700000000     0.754900000000     0.550400000000     0.088551   
H14      H      0.353366666667     0.782966666667     0.596600000000     0.110467   
H15      H      0.620300000000     0.700233333333     0.793700000000     0.098092   
H16      H      0.651100000000     0.991666666667     0.793550000000     0.129394   
H17      H      0.558566666667     0.998866666667     0.707550000000     0.090096   
H18      H      0.400900000000     0.813833333333     0.503250000000     0.090135   
H19      H      0.467633333333     0.722033333333     0.709650000000     0.090479   
H20      H      0.586766666667     0.955600000000     0.706000000000     0.135392   
H21      H      0.441433333333     0.667800000000     0.792450000000     0.090094   
H22      H      0.413233333333     0.711066666667     0.794000000000     0.135394   
H23      H      0.532366666667     0.944633333333     0.790350000000     0.090476   
H24      H      0.358300000000     0.911766666667     0.949600000000     0.088554   
H25      H      0.522933333333     0.842300000000     0.563000000000     0.120408   
H26      H      0.567666666667     0.892600000000     0.564150000000     0.091833   
H27      H      0.569100000000     0.931633333333     0.921950000000     0.114408   
H28      H      0.438033333333     0.908133333333     0.930950000000     0.11029    
H29      H      0.614933333333     0.956666666667     0.968200000000     0.09344    
H30      H      0.364966666667     0.942833333333     0.867600000000     0.125221   
H31      H      0.576566666667     0.913966666667     0.794000000000     0.121027   
H32      H      0.599100000000     0.852833333333     0.996750000000     0.090135   
H33      H      0.455666666667     0.878933333333     0.720100000000     0.091127   
H34      H      0.452633333333     0.957000000000     0.964500000000     0.087742   
H35      H      0.500133333333     0.849300000000     0.720350000000     0.110198   
H36      H      0.380800000000     0.990033333333     0.904000000000     0.088591   
H37      H      0.646633333333     0.883700000000     0.903400000000     0.11047    
H38      H      0.379700000000     0.966433333333     0.706300000000     0.098093   
H39      H      0.555966666667     0.803033333333     0.992300000000     0.131494   
H40      H      0.348900000000     0.675000000000     0.706450000000     0.129396   
N1       N      0.516800000000     0.860600000000     0.844450000000    -0.03796    
N2       N      0.467066666667     0.740866666667     0.533250000000    -0.09307    
N3       N      0.601133333333     0.825366666667     0.739350000000    -0.015545   
N4       N      0.603766666667     0.858966666667     0.779700000000    -0.25648    
N5       N      0.532833333333     0.878866666667     0.873450000000    -0.234015   
N6       N      0.426000000000     0.876966666667     0.871650000000    -0.230092   
N7       N      0.580466666667     0.873666666667     0.853800000000    -0.227102   
N8       N      0.545066666667     0.857333333333     0.832450000000    -0.057932   
N9       N      0.411666666667     0.853166666667     0.846650000000    -0.06522    
N10      N      0.374000000000     0.853000000000     0.832550000000    -0.024584   
N11      N      0.620733333333     0.836533333333     0.768400000000    -0.048206   
N12      N      0.342833333333     0.767866666667     0.765500000000    -0.026603   
N13      N      0.662766666667     0.728633333333     0.725550000000    -0.287688   
N14      N      0.657833333333     0.937233333333     0.962750000000    -0.288935   
N15      N      0.412700000000     0.979300000000     0.749400000000    -0.167123   
N16      N      0.588166666667     0.876900000000     0.530600000000    -0.291049   
N17      N      0.491433333333     0.771000000000     0.546450000000    -0.222756   
N18      N      0.489100000000     0.914866666667     0.754950000000    -0.200086   
N19      N      0.363633333333     0.875566666667     0.847900000000    -0.201954   
N20      N      0.418666666667     0.978366666667     0.937500000000    -0.20554    
N21      N      0.367566666667     0.748900000000     0.774400000000    -0.306997   
N22      N      0.491033333333     0.762400000000     0.997600000000    -0.270598   
N23      N      0.571433333333     0.839766666667     0.730250000000    -0.237214   
N24      N      0.345500000000     0.911266666667     0.762900000000     0.003667   
N25      N      0.342166666667     0.729433333333     0.537250000000    -0.288936   
N26      N      0.508966666667     0.904266666667     0.502400000000    -0.270598   
N27      N      0.467200000000     0.736333333333     0.504150000000    -0.010338   
N28      N      0.581333333333     0.688300000000     0.562500000000    -0.205504   
N29      N      0.483200000000     0.806066666667     0.655550000000    -0.037964   
N30      N      0.467166666667     0.787800000000     0.626550000000    -0.234013   
N31      N      0.419533333333     0.793000000000     0.646200000000    -0.227102   
N32      N      0.574000000000     0.789700000000     0.628350000000    -0.230072   
N33      N      0.588333333333     0.813500000000     0.653350000000    -0.065232   
N34      N      0.396233333333     0.807700000000     0.720300000000    -0.256486   
N35      N      0.398866666667     0.841300000000     0.760650000000    -0.015533   
N36      N      0.532933333333     0.925800000000     0.966750000000    -0.093067   
N37      N      0.532800000000     0.930333333333     0.995850000000    -0.010333   
N38      N      0.454933333333     0.809333333333     0.667550000000    -0.057932   
N39      N      0.428566666667     0.826900000000     0.769750000000    -0.237216   
N40      N      0.657166666667     0.898800000000     0.734500000000    -0.026557   
N41      N      0.337233333333     0.938033333333     0.774450000000    -0.287662   
N42      N      0.587300000000     0.687366666667     0.750600000000    -0.167159   
N43      N      0.411833333333     0.789766666667     0.969400000000    -0.291048   
N44      N      0.508566666667     0.895666666667     0.953550000000    -0.222756   
N45      N      0.510900000000     0.751800000000     0.745050000000    -0.200097   
N46      N      0.636366666667     0.791100000000     0.652100000000    -0.201985   
N47      N      0.379266666667     0.830133333333     0.731600000000    -0.048208   
N48      N      0.632433333333     0.917766666667     0.725600000000    -0.307006   
N49      N      0.626000000000     0.813666666667     0.667450000000    -0.024541   
N50      N      0.654500000000     0.755400000000     0.737100000000     0.003744   
Ag1      Ag     0.895283333333     0.308266666667     0.029865000000     0.26505    
Ag2      Ag     0.671653333333     0.146903333333     0.290995000000     0.228176   
Ag3      Ag     0.785240000000     0.162043333333     0.322915000000     0.303031   
Ag4      Ag     0.965940000000     0.205963333333     0.337340000000     0.32127    
Ag5      Ag     0.937740000000     0.109823333333     0.216905000000     0.0889     
Ag6      Ag     0.824383333333     0.217300000000     0.401565000000     0.313659   
Ag7      Ag     0.771383333333     0.025066666667     0.470135000000     0.265058   
Ag8      Ag     0.782610000000     0.279200000000     0.250565000000     0.156584   
Ag9      Ag     0.881426666667     0.171290000000     0.177085000000     0.303042   
Ag10     Ag     0.884056666667     0.054133333333     0.249435000000     0.156553   
Ag11     Ag     0.700726666667     0.127370000000     0.162660000000     0.321275   
Ag12     Ag     0.728926666667     0.223510000000     0.283095000000     0.08886    
Ag13     Ag     0.842283333333     0.116033333333     0.098435000000     0.313657   
Ag14     Ag     0.995013333333     0.186430000000     0.209005000000     0.228157   
C1       C      0.739600000000     0.072900000000     0.072500000000    -0.181135   
C2       C      0.701466666667     0.007466666667     0.224300000000    -0.176868   
C3       C      0.710966666667     0.030833333333     0.249300000000     0.081093   
C4       C      0.755766666667     0.002733333333     0.274750000000     0.045853   
C5       C      0.739233333333     0.028700000000     0.276000000000    -0.16507    
C6       C      0.807700000000     0.075133333333     0.223700000000     0.028972   
C7       C      0.666766666667     0.084533333333     0.056250000000     0.09026    
C8       C      0.768266666667     0.126000000000     0.450050000000     0.077303   
C9       C      0.932633333333     0.079866666667     0.104650000000     0.026627   
C10      C      0.780666666667     0.092733333333     0.222000000000    -0.169136   
C11      C      0.937666666667     0.108766666667     0.128100000000     0.211218   
C12      C      0.712066666667     0.057733333333     0.045400000000     0.091889   
C13      C      0.799766666667     0.182833333333     0.472800000000     0.07639    
C14      C      0.974566666667     0.274666666667     0.249500000000     0.211824   
C15      C      0.950500000000     0.054900000000     0.112900000000    -0.197905   
C16      C      0.775433333333     0.179100000000     0.492900000000    -0.183294   
C17      C      0.719600000000     0.315266666667     0.224300000000     0.060952   
C18      C      0.760433333333     0.140633333333     0.244100000000     0.246002   
C19      C      0.828100000000     0.216100000000     0.475850000000     0.224085   
C20      C      0.730533333333     0.095600000000     0.092300000000     0.064127   
C21      C      0.788533333333     0.120333333333     0.243700000000     0.045894   
C22      C      0.906933333333     0.075166666667     0.075250000000    -0.203767   
C23      C      0.973300000000     0.232033333333     0.416200000000    -0.191879   
C24      C      0.878133333333     0.213000000000     0.256300000000     0.045938   
C25      C      0.726166666667     0.306633333333     0.409150000000     0.032759   
C26      C      0.858966666667     0.258200000000     0.276300000000     0.028979   
C27      C      0.999900000000     0.248800000000     0.443750000000     0.090277   
C28      C      0.871266666667     0.177500000000     0.049150000000    -0.195038   
C29      C      0.898400000000     0.207333333333     0.049950000000     0.077307   
C30      C      0.734033333333     0.253466666667     0.395350000000     0.026592   
C31      C      0.927066666667     0.260433333333     0.427500000000    -0.181134   
C32      C      0.886000000000     0.240600000000     0.278000000000    -0.169149   
C33      C      0.759733333333     0.258166666667     0.424750000000    -0.203759   
C34      C      0.954600000000     0.275600000000     0.454600000000     0.091889   
C35      C      0.866900000000     0.150500000000     0.027200000000     0.076392   
C36      C      0.905433333333     0.219166666667     0.378650000000     0.257615   
C37      C      0.692100000000     0.058666666667     0.250500000000     0.21184    
C38      C      0.891233333333     0.154233333333     0.007100000000    -0.183294   
C39      C      0.729000000000     0.224566666667     0.371900000000     0.21124    
C40      C      0.906233333333     0.192700000000     0.255900000000     0.245968   
C41      C      0.838566666667     0.117233333333     0.024150000000     0.224085   
C42      C      0.936133333333     0.237733333333     0.407700000000     0.064127   
C43      C      0.749933333333     0.149533333333     0.489900000000     0.083661   
C44      C      0.916733333333     0.183800000000     0.010100000000     0.08366    
C45      C      0.814066666667     0.219900000000     0.234700000000     0.050805   
C46      C      0.768166666667     0.287466666667     0.444850000000     0.052504   
C47      C      0.840433333333     0.202166666667     0.234750000000    -0.187546   
C48      C      0.716166666667     0.278433333333     0.387100000000    -0.19778    
C49      C      0.852600000000     0.113433333333     0.265300000000     0.050808   
C50      C      0.795400000000     0.155833333333     0.450850000000    -0.19503    
C51      C      0.826233333333     0.131166666667     0.265250000000    -0.187539   
C52      C      0.898500000000     0.045866666667     0.055150000000     0.052482   
C53      C      0.910900000000     0.330600000000     0.225250000000     0.045846   
C54      C      0.955700000000     0.302500000000     0.250700000000     0.081057   
C55      C      0.965200000000     0.325866666667     0.275700000000    -0.176853   
C56      C      0.927433333333     0.304633333333     0.224000000000    -0.165076   
C57      C      0.693366666667     0.101300000000     0.083800000000    -0.191865   
C58      C      0.761233333333     0.114166666667     0.121350000000     0.257611   
C59      C      0.940500000000     0.026700000000     0.090850000000     0.032851   
C60      C      0.947066666667     0.018066666667     0.275700000000     0.060936   
H1       H      0.968366666667     0.057166666667     0.132400000000     0.125237   
H2       H      0.810400000000     0.157700000000     0.437000000000     0.120407   
H3       H      0.765666666667     0.107400000000     0.435850000000     0.091833   
H4       H      0.764233333333     0.068366666667     0.078050000000     0.114408   
H5       H      0.756766666667     0.086033333333     0.206000000000     0.121024   
H6       H      0.895300000000     0.091866666667     0.069050000000     0.110295   
H7       H      0.718400000000     0.043333333333     0.031800000000     0.093441   
H8       H      0.777366666667     0.196966666667     0.007700000000     0.131496   
H9       H      0.952533333333     0.009966666667     0.096000000000     0.088586   
H10      H      0.877666666667     0.121066666667     0.279900000000     0.091129   
H11      H      0.880700000000     0.043000000000     0.035500000000     0.08775    
H12      H      0.833200000000     0.150700000000     0.279650000000     0.110197   
H13      H      0.975033333333     0.088233333333     0.050400000000     0.088551   
H14      H      0.686700000000     0.116300000000     0.096600000000     0.110467   
H15      H      0.953633333333     0.033566666667     0.293700000000     0.098092   
H16      H      0.984433333333     0.325000000000     0.293550000000     0.129394   
H17      H      0.891900000000     0.332200000000     0.207550000000     0.090096   
H18      H      0.734233333333     0.147166666667     0.003250000000     0.090135   
H19      H      0.800966666667     0.055366666667     0.209650000000     0.090479   
H20      H      0.920100000000     0.288933333333     0.206000000000     0.135392   
H21      H      0.774766666667     0.001133333333     0.292450000000     0.090094   
H22      H      0.746566666667     0.044400000000     0.294000000000     0.135394   
H23      H      0.865700000000     0.277966666667     0.290350000000     0.090476   
H24      H      0.691633333333     0.245100000000     0.449600000000     0.088554   
H25      H      0.856266666667     0.175633333333     0.063000000000     0.120408   
H26      H      0.901000000000     0.225933333333     0.064150000000     0.091833   
H27      H      0.902433333333     0.264966666667     0.421950000000     0.114408   
H28      H      0.771366666667     0.241466666667     0.430950000000     0.11029    
H29      H      0.948266666667     0.290000000000     0.468200000000     0.09344    
H30      H      0.698300000000     0.276166666667     0.367600000000     0.125221   
H31      H      0.909900000000     0.247300000000     0.294000000000     0.121027   
H32      H      0.932433333333     0.186166666667     0.496750000000     0.090135   
H33      H      0.789000000000     0.212266666667     0.220100000000     0.091127   
H34      H      0.785966666667     0.290333333333     0.464500000000     0.087742   
H35      H      0.833466666667     0.182633333333     0.220350000000     0.110198   
H36      H      0.714133333333     0.323366666667     0.404000000000     0.088591   
H37      H      0.979966666667     0.217033333333     0.403400000000     0.11047    
H38      H      0.713033333333     0.299766666667     0.206300000000     0.098093   
H39      H      0.889300000000     0.136366666667     0.492300000000     0.131494   
H40      H      0.682233333333     0.008333333333     0.206450000000     0.129396   
N1       N      0.850133333333     0.193933333333     0.344450000000    -0.03796    
N2       N      0.800400000000     0.074200000000     0.033250000000    -0.09307    
N3       N      0.934466666667     0.158700000000     0.239350000000    -0.015545   
N4       N      0.937100000000     0.192300000000     0.279700000000    -0.25648    
N5       N      0.866166666667     0.212200000000     0.373450000000    -0.234015   
N6       N      0.759333333333     0.210300000000     0.371650000000    -0.230092   
N7       N      0.913800000000     0.207000000000     0.353800000000    -0.227102   
N8       N      0.878400000000     0.190666666667     0.332450000000    -0.057932   
N9       N      0.745000000000     0.186500000000     0.346650000000    -0.06522    
N10      N      0.707333333333     0.186333333333     0.332550000000    -0.024584   
N11      N      0.954066666667     0.169866666667     0.268400000000    -0.048206   
N12      N      0.676166666667     0.101200000000     0.265500000000    -0.026603   
N13      N      0.996100000000     0.061966666667     0.225550000000    -0.287688   
N14      N      0.991166666667     0.270566666667     0.462750000000    -0.288935   
N15      N      0.746033333333     0.312633333333     0.249400000000    -0.167123   
N16      N      0.921500000000     0.210233333333     0.030600000000    -0.291049   
N17      N      0.824766666667     0.104333333333     0.046450000000    -0.222756   
N18      N      0.822433333333     0.248200000000     0.254950000000    -0.200086   
N19      N      0.696966666667     0.208900000000     0.347900000000    -0.201954   
N20      N      0.752000000000     0.311700000000     0.437500000000    -0.20554    
N21      N      0.700900000000     0.082233333333     0.274400000000    -0.306997   
N22      N      0.824366666667     0.095733333333     0.497600000000    -0.270598   
N23      N      0.904766666667     0.173100000000     0.230250000000    -0.237214   
N24      N      0.678833333333     0.244600000000     0.262900000000     0.003667   
N25      N      0.675500000000     0.062766666667     0.037250000000    -0.288936   
N26      N      0.842300000000     0.237600000000     0.002400000000    -0.270598   
N27      N      0.800533333333     0.069666666667     0.004150000000    -0.010338   
N28      N      0.914666666667     0.021633333333     0.062500000000    -0.205504   
N29      N      0.816533333333     0.139400000000     0.155550000000    -0.037964   
N30      N      0.800500000000     0.121133333333     0.126550000000    -0.234013   
N31      N      0.752866666667     0.126333333333     0.146200000000    -0.227102   
N32      N      0.907333333333     0.123033333333     0.128350000000    -0.230072   
N33      N      0.921666666667     0.146833333333     0.153350000000    -0.065232   
N34      N      0.729566666667     0.141033333333     0.220300000000    -0.256486   
N35      N      0.732200000000     0.174633333333     0.260650000000    -0.015533   
N36      N      0.866266666667     0.259133333333     0.466750000000    -0.093067   
N37      N      0.866133333333     0.263666666667     0.495850000000    -0.010333   
N38      N      0.788266666667     0.142666666667     0.167550000000    -0.057932   
N39      N      0.761900000000     0.160233333333     0.269750000000    -0.237216   
N40      N      0.990500000000     0.232133333333     0.234500000000    -0.026557   
N41      N      0.670566666667     0.271366666667     0.274450000000    -0.287662   
N42      N      0.920633333333     0.020700000000     0.250600000000    -0.167159   
N43      N      0.745166666667     0.123100000000     0.469400000000    -0.291048   
N44      N      0.841900000000     0.229000000000     0.453550000000    -0.222756   
N45      N      0.844233333333     0.085133333333     0.245050000000    -0.200097   
N46      N      0.969700000000     0.124433333333     0.152100000000    -0.201985   
N47      N      0.712600000000     0.163466666667     0.231600000000    -0.048208   
N48      N      0.965766666667     0.251100000000     0.225600000000    -0.307006   
N49      N      0.959333333333     0.147000000000     0.167450000000    -0.024541   
N50      N      0.987833333333     0.088733333333     0.237100000000     0.003744   
Ag1      Ag     0.895283333333     0.308266666667     0.529865000000     0.26505    
Ag2      Ag     0.671653333333     0.146903333333     0.790995000000     0.228176   
Ag3      Ag     0.785240000000     0.162043333333     0.822915000000     0.303031   
Ag4      Ag     0.965940000000     0.205963333333     0.837340000000     0.32127    
Ag5      Ag     0.937740000000     0.109823333333     0.716905000000     0.0889     
Ag6      Ag     0.824383333333     0.217300000000     0.901565000000     0.313659   
Ag7      Ag     0.771383333333     0.025066666667     0.970135000000     0.265058   
Ag8      Ag     0.782610000000     0.279200000000     0.750565000000     0.156584   
Ag9      Ag     0.881426666667     0.171290000000     0.677085000000     0.303042   
Ag10     Ag     0.884056666667     0.054133333333     0.749435000000     0.156553   
Ag11     Ag     0.700726666667     0.127370000000     0.662660000000     0.321275   
Ag12     Ag     0.728926666667     0.223510000000     0.783095000000     0.08886    
Ag13     Ag     0.842283333333     0.116033333333     0.598435000000     0.313657   
Ag14     Ag     0.995013333333     0.186430000000     0.709005000000     0.228157   
C1       C      0.739600000000     0.072900000000     0.572500000000    -0.181135   
C2       C      0.701466666667     0.007466666667     0.724300000000    -0.176868   
C3       C      0.710966666667     0.030833333333     0.749300000000     0.081093   
C4       C      0.755766666667     0.002733333333     0.774750000000     0.045853   
C5       C      0.739233333333     0.028700000000     0.776000000000    -0.16507    
C6       C      0.807700000000     0.075133333333     0.723700000000     0.028972   
C7       C      0.666766666667     0.084533333333     0.556250000000     0.09026    
C8       C      0.768266666667     0.126000000000     0.950050000000     0.077303   
C9       C      0.932633333333     0.079866666667     0.604650000000     0.026627   
C10      C      0.780666666667     0.092733333333     0.722000000000    -0.169136   
C11      C      0.937666666667     0.108766666667     0.628100000000     0.211218   
C12      C      0.712066666667     0.057733333333     0.545400000000     0.091889   
C13      C      0.799766666667     0.182833333333     0.972800000000     0.07639    
C14      C      0.974566666667     0.274666666667     0.749500000000     0.211824   
C15      C      0.950500000000     0.054900000000     0.612900000000    -0.197905   
C16      C      0.775433333333     0.179100000000     0.992900000000    -0.183294   
C17      C      0.719600000000     0.315266666667     0.724300000000     0.060952   
C18      C      0.760433333333     0.140633333333     0.744100000000     0.246002   
C19      C      0.828100000000     0.216100000000     0.975850000000     0.224085   
C20      C      0.730533333333     0.095600000000     0.592300000000     0.064127   
C21      C      0.788533333333     0.120333333333     0.743700000000     0.045894   
C22      C      0.906933333333     0.075166666667     0.575250000000    -0.203767   
C23      C      0.973300000000     0.232033333333     0.916200000000    -0.191879   
C24      C      0.878133333333     0.213000000000     0.756300000000     0.045938   
C25      C      0.726166666667     0.306633333333     0.909150000000     0.032759   
C26      C      0.858966666667     0.258200000000     0.776300000000     0.028979   
C27      C      0.999900000000     0.248800000000     0.943750000000     0.090277   
C28      C      0.871266666667     0.177500000000     0.549150000000    -0.195038   
C29      C      0.898400000000     0.207333333333     0.549950000000     0.077307   
C30      C      0.734033333333     0.253466666667     0.895350000000     0.026592   
C31      C      0.927066666667     0.260433333333     0.927500000000    -0.181134   
C32      C      0.886000000000     0.240600000000     0.778000000000    -0.169149   
C33      C      0.759733333333     0.258166666667     0.924750000000    -0.203759   
C34      C      0.954600000000     0.275600000000     0.954600000000     0.091889   
C35      C      0.866900000000     0.150500000000     0.527200000000     0.076392   
C36      C      0.905433333333     0.219166666667     0.878650000000     0.257615   
C37      C      0.692100000000     0.058666666667     0.750500000000     0.21184    
C38      C      0.891233333333     0.154233333333     0.507100000000    -0.183294   
C39      C      0.729000000000     0.224566666667     0.871900000000     0.21124    
C40      C      0.906233333333     0.192700000000     0.755900000000     0.245968   
C41      C      0.838566666667     0.117233333333     0.524150000000     0.224085   
C42      C      0.936133333333     0.237733333333     0.907700000000     0.064127   
C43      C      0.749933333333     0.149533333333     0.989900000000     0.083661   
C44      C      0.916733333333     0.183800000000     0.510100000000     0.08366    
C45      C      0.814066666667     0.219900000000     0.734700000000     0.050805   
C46      C      0.768166666667     0.287466666667     0.944850000000     0.052504   
C47      C      0.840433333333     0.202166666667     0.734750000000    -0.187546   
C48      C      0.716166666667     0.278433333333     0.887100000000    -0.19778    
C49      C      0.852600000000     0.113433333333     0.765300000000     0.050808   
C50      C      0.795400000000     0.155833333333     0.950850000000    -0.19503    
C51      C      0.826233333333     0.131166666667     0.765250000000    -0.187539   
C52      C      0.898500000000     0.045866666667     0.555150000000     0.052482   
C53      C      0.910900000000     0.330600000000     0.725250000000     0.045846   
C54      C      0.955700000000     0.302500000000     0.750700000000     0.081057   
C55      C      0.965200000000     0.325866666667     0.775700000000    -0.176853   
C56      C      0.927433333333     0.304633333333     0.724000000000    -0.165076   
C57      C      0.693366666667     0.101300000000     0.583800000000    -0.191865   
C58      C      0.761233333333     0.114166666667     0.621350000000     0.257611   
C59      C      0.940500000000     0.026700000000     0.590850000000     0.032851   
C60      C      0.947066666667     0.018066666667     0.775700000000     0.060936   
H1       H      0.968366666667     0.057166666667     0.632400000000     0.125237   
H2       H      0.810400000000     0.157700000000     0.937000000000     0.120407   
H3       H      0.765666666667     0.107400000000     0.935850000000     0.091833   
H4       H      0.764233333333     0.068366666667     0.578050000000     0.114408   
H5       H      0.756766666667     0.086033333333     0.706000000000     0.121024   
H6       H      0.895300000000     0.091866666667     0.569050000000     0.110295   
H7       H      0.718400000000     0.043333333333     0.531800000000     0.093441   
H8       H      0.777366666667     0.196966666667     0.507700000000     0.131496   
H9       H      0.952533333333     0.009966666667     0.596000000000     0.088586   
H10      H      0.877666666667     0.121066666667     0.779900000000     0.091129   
H11      H      0.880700000000     0.043000000000     0.535500000000     0.08775    
H12      H      0.833200000000     0.150700000000     0.779650000000     0.110197   
H13      H      0.975033333333     0.088233333333     0.550400000000     0.088551   
H14      H      0.686700000000     0.116300000000     0.596600000000     0.110467   
H15      H      0.953633333333     0.033566666667     0.793700000000     0.098092   
H16      H      0.984433333333     0.325000000000     0.793550000000     0.129394   
H17      H      0.891900000000     0.332200000000     0.707550000000     0.090096   
H18      H      0.734233333333     0.147166666667     0.503250000000     0.090135   
H19      H      0.800966666667     0.055366666667     0.709650000000     0.090479   
H20      H      0.920100000000     0.288933333333     0.706000000000     0.135392   
H21      H      0.774766666667     0.001133333333     0.792450000000     0.090094   
H22      H      0.746566666667     0.044400000000     0.794000000000     0.135394   
H23      H      0.865700000000     0.277966666667     0.790350000000     0.090476   
H24      H      0.691633333333     0.245100000000     0.949600000000     0.088554   
H25      H      0.856266666667     0.175633333333     0.563000000000     0.120408   
H26      H      0.901000000000     0.225933333333     0.564150000000     0.091833   
H27      H      0.902433333333     0.264966666667     0.921950000000     0.114408   
H28      H      0.771366666667     0.241466666667     0.930950000000     0.11029    
H29      H      0.948266666667     0.290000000000     0.968200000000     0.09344    
H30      H      0.698300000000     0.276166666667     0.867600000000     0.125221   
H31      H      0.909900000000     0.247300000000     0.794000000000     0.121027   
H32      H      0.932433333333     0.186166666667     0.996750000000     0.090135   
H33      H      0.789000000000     0.212266666667     0.720100000000     0.091127   
H34      H      0.785966666667     0.290333333333     0.964500000000     0.087742   
H35      H      0.833466666667     0.182633333333     0.720350000000     0.110198   
H36      H      0.714133333333     0.323366666667     0.904000000000     0.088591   
H37      H      0.979966666667     0.217033333333     0.903400000000     0.11047    
H38      H      0.713033333333     0.299766666667     0.706300000000     0.098093   
H39      H      0.889300000000     0.136366666667     0.992300000000     0.131494   
H40      H      0.682233333333     0.008333333333     0.706450000000     0.129396   
N1       N      0.850133333333     0.193933333333     0.844450000000    -0.03796    
N2       N      0.800400000000     0.074200000000     0.533250000000    -0.09307    
N3       N      0.934466666667     0.158700000000     0.739350000000    -0.015545   
N4       N      0.937100000000     0.192300000000     0.779700000000    -0.25648    
N5       N      0.866166666667     0.212200000000     0.873450000000    -0.234015   
N6       N      0.759333333333     0.210300000000     0.871650000000    -0.230092   
N7       N      0.913800000000     0.207000000000     0.853800000000    -0.227102   
N8       N      0.878400000000     0.190666666667     0.832450000000    -0.057932   
N9       N      0.745000000000     0.186500000000     0.846650000000    -0.06522    
N10      N      0.707333333333     0.186333333333     0.832550000000    -0.024584   
N11      N      0.954066666667     0.169866666667     0.768400000000    -0.048206   
N12      N      0.676166666667     0.101200000000     0.765500000000    -0.026603   
N13      N      0.996100000000     0.061966666667     0.725550000000    -0.287688   
N14      N      0.991166666667     0.270566666667     0.962750000000    -0.288935   
N15      N      0.746033333333     0.312633333333     0.749400000000    -0.167123   
N16      N      0.921500000000     0.210233333333     0.530600000000    -0.291049   
N17      N      0.824766666667     0.104333333333     0.546450000000    -0.222756   
N18      N      0.822433333333     0.248200000000     0.754950000000    -0.200086   
N19      N      0.696966666667     0.208900000000     0.847900000000    -0.201954   
N20      N      0.752000000000     0.311700000000     0.937500000000    -0.20554    
N21      N      0.700900000000     0.082233333333     0.774400000000    -0.306997   
N22      N      0.824366666667     0.095733333333     0.997600000000    -0.270598   
N23      N      0.904766666667     0.173100000000     0.730250000000    -0.237214   
N24      N      0.678833333333     0.244600000000     0.762900000000     0.003667   
N25      N      0.675500000000     0.062766666667     0.537250000000    -0.288936   
N26      N      0.842300000000     0.237600000000     0.502400000000    -0.270598   
N27      N      0.800533333333     0.069666666667     0.504150000000    -0.010338   
N28      N      0.914666666667     0.021633333333     0.562500000000    -0.205504   
N29      N      0.816533333333     0.139400000000     0.655550000000    -0.037964   
N30      N      0.800500000000     0.121133333333     0.626550000000    -0.234013   
N31      N      0.752866666667     0.126333333333     0.646200000000    -0.227102   
N32      N      0.907333333333     0.123033333333     0.628350000000    -0.230072   
N33      N      0.921666666667     0.146833333333     0.653350000000    -0.065232   
N34      N      0.729566666667     0.141033333333     0.720300000000    -0.256486   
N35      N      0.732200000000     0.174633333333     0.760650000000    -0.015533   
N36      N      0.866266666667     0.259133333333     0.966750000000    -0.093067   
N37      N      0.866133333333     0.263666666667     0.995850000000    -0.010333   
N38      N      0.788266666667     0.142666666667     0.667550000000    -0.057932   
N39      N      0.761900000000     0.160233333333     0.769750000000    -0.237216   
N40      N      0.990500000000     0.232133333333     0.734500000000    -0.026557   
N41      N      0.670566666667     0.271366666667     0.774450000000    -0.287662   
N42      N      0.920633333333     0.020700000000     0.750600000000    -0.167159   
N43      N      0.745166666667     0.123100000000     0.969400000000    -0.291048   
N44      N      0.841900000000     0.229000000000     0.953550000000    -0.222756   
N45      N      0.844233333333     0.085133333333     0.745050000000    -0.200097   
N46      N      0.969700000000     0.124433333333     0.652100000000    -0.201985   
N47      N      0.712600000000     0.163466666667     0.731600000000    -0.048208   
N48      N      0.965766666667     0.251100000000     0.725600000000    -0.307006   
N49      N      0.959333333333     0.147000000000     0.667450000000    -0.024541   
N50      N      0.987833333333     0.088733333333     0.737100000000     0.003744   
Ag1      Ag     0.895283333333     0.641600000000     0.029865000000     0.26505    
Ag2      Ag     0.671653333333     0.480236666667     0.290995000000     0.228176   
Ag3      Ag     0.785240000000     0.495376666667     0.322915000000     0.303031   
Ag4      Ag     0.965940000000     0.539296666667     0.337340000000     0.32127    
Ag5      Ag     0.937740000000     0.443156666667     0.216905000000     0.0889     
Ag6      Ag     0.824383333333     0.550633333333     0.401565000000     0.313659   
Ag7      Ag     0.771383333333     0.358400000000     0.470135000000     0.265058   
Ag8      Ag     0.782610000000     0.612533333333     0.250565000000     0.156584   
Ag9      Ag     0.881426666667     0.504623333333     0.177085000000     0.303042   
Ag10     Ag     0.884056666667     0.387466666667     0.249435000000     0.156553   
Ag11     Ag     0.700726666667     0.460703333333     0.162660000000     0.321275   
Ag12     Ag     0.728926666667     0.556843333333     0.283095000000     0.08886    
Ag13     Ag     0.842283333333     0.449366666667     0.098435000000     0.313657   
Ag14     Ag     0.995013333333     0.519763333333     0.209005000000     0.228157   
C1       C      0.739600000000     0.406233333333     0.072500000000    -0.181135   
C2       C      0.701466666667     0.340800000000     0.224300000000    -0.176868   
C3       C      0.710966666667     0.364166666667     0.249300000000     0.081093   
C4       C      0.755766666667     0.336066666667     0.274750000000     0.045853   
C5       C      0.739233333333     0.362033333333     0.276000000000    -0.16507    
C6       C      0.807700000000     0.408466666667     0.223700000000     0.028972   
C7       C      0.666766666667     0.417866666667     0.056250000000     0.09026    
C8       C      0.768266666667     0.459333333333     0.450050000000     0.077303   
C9       C      0.932633333333     0.413200000000     0.104650000000     0.026627   
C10      C      0.780666666667     0.426066666667     0.222000000000    -0.169136   
C11      C      0.937666666667     0.442100000000     0.128100000000     0.211218   
C12      C      0.712066666667     0.391066666667     0.045400000000     0.091889   
C13      C      0.799766666667     0.516166666667     0.472800000000     0.07639    
C14      C      0.974566666667     0.608000000000     0.249500000000     0.211824   
C15      C      0.950500000000     0.388233333333     0.112900000000    -0.197905   
C16      C      0.775433333333     0.512433333333     0.492900000000    -0.183294   
C17      C      0.719600000000     0.648600000000     0.224300000000     0.060952   
C18      C      0.760433333333     0.473966666667     0.244100000000     0.246002   
C19      C      0.828100000000     0.549433333333     0.475850000000     0.224085   
C20      C      0.730533333333     0.428933333333     0.092300000000     0.064127   
C21      C      0.788533333333     0.453666666667     0.243700000000     0.045894   
C22      C      0.906933333333     0.408500000000     0.075250000000    -0.203767   
C23      C      0.973300000000     0.565366666667     0.416200000000    -0.191879   
C24      C      0.878133333333     0.546333333333     0.256300000000     0.045938   
C25      C      0.726166666667     0.639966666667     0.409150000000     0.032759   
C26      C      0.858966666667     0.591533333333     0.276300000000     0.028979   
C27      C      0.999900000000     0.582133333333     0.443750000000     0.090277   
C28      C      0.871266666667     0.510833333333     0.049150000000    -0.195038   
C29      C      0.898400000000     0.540666666667     0.049950000000     0.077307   
C30      C      0.734033333333     0.586800000000     0.395350000000     0.026592   
C31      C      0.927066666667     0.593766666667     0.427500000000    -0.181134   
C32      C      0.886000000000     0.573933333333     0.278000000000    -0.169149   
C33      C      0.759733333333     0.591500000000     0.424750000000    -0.203759   
C34      C      0.954600000000     0.608933333333     0.454600000000     0.091889   
C35      C      0.866900000000     0.483833333333     0.027200000000     0.076392   
C36      C      0.905433333333     0.552500000000     0.378650000000     0.257615   
C37      C      0.692100000000     0.392000000000     0.250500000000     0.21184    
C38      C      0.891233333333     0.487566666667     0.007100000000    -0.183294   
C39      C      0.729000000000     0.557900000000     0.371900000000     0.21124    
C40      C      0.906233333333     0.526033333333     0.255900000000     0.245968   
C41      C      0.838566666667     0.450566666667     0.024150000000     0.224085   
C42      C      0.936133333333     0.571066666667     0.407700000000     0.064127   
C43      C      0.749933333333     0.482866666667     0.489900000000     0.083661   
C44      C      0.916733333333     0.517133333333     0.010100000000     0.08366    
C45      C      0.814066666667     0.553233333333     0.234700000000     0.050805   
C46      C      0.768166666667     0.620800000000     0.444850000000     0.052504   
C47      C      0.840433333333     0.535500000000     0.234750000000    -0.187546   
C48      C      0.716166666667     0.611766666667     0.387100000000    -0.19778    
C49      C      0.852600000000     0.446766666667     0.265300000000     0.050808   
C50      C      0.795400000000     0.489166666667     0.450850000000    -0.19503    
C51      C      0.826233333333     0.464500000000     0.265250000000    -0.187539   
C52      C      0.898500000000     0.379200000000     0.055150000000     0.052482   
C53      C      0.910900000000     0.663933333333     0.225250000000     0.045846   
C54      C      0.955700000000     0.635833333333     0.250700000000     0.081057   
C55      C      0.965200000000     0.659200000000     0.275700000000    -0.176853   
C56      C      0.927433333333     0.637966666667     0.224000000000    -0.165076   
C57      C      0.693366666667     0.434633333333     0.083800000000    -0.191865   
C58      C      0.761233333333     0.447500000000     0.121350000000     0.257611   
C59      C      0.940500000000     0.360033333333     0.090850000000     0.032851   
C60      C      0.947066666667     0.351400000000     0.275700000000     0.060936   
H1       H      0.968366666667     0.390500000000     0.132400000000     0.125237   
H2       H      0.810400000000     0.491033333333     0.437000000000     0.120407   
H3       H      0.765666666667     0.440733333333     0.435850000000     0.091833   
H4       H      0.764233333333     0.401700000000     0.078050000000     0.114408   
H5       H      0.756766666667     0.419366666667     0.206000000000     0.121024   
H6       H      0.895300000000     0.425200000000     0.069050000000     0.110295   
H7       H      0.718400000000     0.376666666667     0.031800000000     0.093441   
H8       H      0.777366666667     0.530300000000     0.007700000000     0.131496   
H9       H      0.952533333333     0.343300000000     0.096000000000     0.088586   
H10      H      0.877666666667     0.454400000000     0.279900000000     0.091129   
H11      H      0.880700000000     0.376333333333     0.035500000000     0.08775    
H12      H      0.833200000000     0.484033333333     0.279650000000     0.110197   
H13      H      0.975033333333     0.421566666667     0.050400000000     0.088551   
H14      H      0.686700000000     0.449633333333     0.096600000000     0.110467   
H15      H      0.953633333333     0.366900000000     0.293700000000     0.098092   
H16      H      0.984433333333     0.658333333333     0.293550000000     0.129394   
H17      H      0.891900000000     0.665533333333     0.207550000000     0.090096   
H18      H      0.734233333333     0.480500000000     0.003250000000     0.090135   
H19      H      0.800966666667     0.388700000000     0.209650000000     0.090479   
H20      H      0.920100000000     0.622266666667     0.206000000000     0.135392   
H21      H      0.774766666667     0.334466666667     0.292450000000     0.090094   
H22      H      0.746566666667     0.377733333333     0.294000000000     0.135394   
H23      H      0.865700000000     0.611300000000     0.290350000000     0.090476   
H24      H      0.691633333333     0.578433333333     0.449600000000     0.088554   
H25      H      0.856266666667     0.508966666667     0.063000000000     0.120408   
H26      H      0.901000000000     0.559266666667     0.064150000000     0.091833   
H27      H      0.902433333333     0.598300000000     0.421950000000     0.114408   
H28      H      0.771366666667     0.574800000000     0.430950000000     0.11029    
H29      H      0.948266666667     0.623333333333     0.468200000000     0.09344    
H30      H      0.698300000000     0.609500000000     0.367600000000     0.125221   
H31      H      0.909900000000     0.580633333333     0.294000000000     0.121027   
H32      H      0.932433333333     0.519500000000     0.496750000000     0.090135   
H33      H      0.789000000000     0.545600000000     0.220100000000     0.091127   
H34      H      0.785966666667     0.623666666667     0.464500000000     0.087742   
H35      H      0.833466666667     0.515966666667     0.220350000000     0.110198   
H36      H      0.714133333333     0.656700000000     0.404000000000     0.088591   
H37      H      0.979966666667     0.550366666667     0.403400000000     0.11047    
H38      H      0.713033333333     0.633100000000     0.206300000000     0.098093   
H39      H      0.889300000000     0.469700000000     0.492300000000     0.131494   
H40      H      0.682233333333     0.341666666667     0.206450000000     0.129396   
N1       N      0.850133333333     0.527266666667     0.344450000000    -0.03796    
N2       N      0.800400000000     0.407533333333     0.033250000000    -0.09307    
N3       N      0.934466666667     0.492033333333     0.239350000000    -0.015545   
N4       N      0.937100000000     0.525633333333     0.279700000000    -0.25648    
N5       N      0.866166666667     0.545533333333     0.373450000000    -0.234015   
N6       N      0.759333333333     0.543633333333     0.371650000000    -0.230092   
N7       N      0.913800000000     0.540333333333     0.353800000000    -0.227102   
N8       N      0.878400000000     0.524000000000     0.332450000000    -0.057932   
N9       N      0.745000000000     0.519833333333     0.346650000000    -0.06522    
N10      N      0.707333333333     0.519666666667     0.332550000000    -0.024584   
N11      N      0.954066666667     0.503200000000     0.268400000000    -0.048206   
N12      N      0.676166666667     0.434533333333     0.265500000000    -0.026603   
N13      N      0.996100000000     0.395300000000     0.225550000000    -0.287688   
N14      N      0.991166666667     0.603900000000     0.462750000000    -0.288935   
N15      N      0.746033333333     0.645966666667     0.249400000000    -0.167123   
N16      N      0.921500000000     0.543566666667     0.030600000000    -0.291049   
N17      N      0.824766666667     0.437666666667     0.046450000000    -0.222756   
N18      N      0.822433333333     0.581533333333     0.254950000000    -0.200086   
N19      N      0.696966666667     0.542233333333     0.347900000000    -0.201954   
N20      N      0.752000000000     0.645033333333     0.437500000000    -0.20554    
N21      N      0.700900000000     0.415566666667     0.274400000000    -0.306997   
N22      N      0.824366666667     0.429066666667     0.497600000000    -0.270598   
N23      N      0.904766666667     0.506433333333     0.230250000000    -0.237214   
N24      N      0.678833333333     0.577933333333     0.262900000000     0.003667   
N25      N      0.675500000000     0.396100000000     0.037250000000    -0.288936   
N26      N      0.842300000000     0.570933333333     0.002400000000    -0.270598   
N27      N      0.800533333333     0.403000000000     0.004150000000    -0.010338   
N28      N      0.914666666667     0.354966666667     0.062500000000    -0.205504   
N29      N      0.816533333333     0.472733333333     0.155550000000    -0.037964   
N30      N      0.800500000000     0.454466666667     0.126550000000    -0.234013   
N31      N      0.752866666667     0.459666666667     0.146200000000    -0.227102   
N32      N      0.907333333333     0.456366666667     0.128350000000    -0.230072   
N33      N      0.921666666667     0.480166666667     0.153350000000    -0.065232   
N34      N      0.729566666667     0.474366666667     0.220300000000    -0.256486   
N35      N      0.732200000000     0.507966666667     0.260650000000    -0.015533   
N36      N      0.866266666667     0.592466666667     0.466750000000    -0.093067   
N37      N      0.866133333333     0.597000000000     0.495850000000    -0.010333   
N38      N      0.788266666667     0.476000000000     0.167550000000    -0.057932   
N39      N      0.761900000000     0.493566666667     0.269750000000    -0.237216   
N40      N      0.990500000000     0.565466666667     0.234500000000    -0.026557   
N41      N      0.670566666667     0.604700000000     0.274450000000    -0.287662   
N42      N      0.920633333333     0.354033333333     0.250600000000    -0.167159   
N43      N      0.745166666667     0.456433333333     0.469400000000    -0.291048   
N44      N      0.841900000000     0.562333333333     0.453550000000    -0.222756   
N45      N      0.844233333333     0.418466666667     0.245050000000    -0.200097   
N46      N      0.969700000000     0.457766666667     0.152100000000    -0.201985   
N47      N      0.712600000000     0.496800000000     0.231600000000    -0.048208   
N48      N      0.965766666667     0.584433333333     0.225600000000    -0.307006   
N49      N      0.959333333333     0.480333333333     0.167450000000    -0.024541   
N50      N      0.987833333333     0.422066666667     0.237100000000     0.003744   
Ag1      Ag     0.895283333333     0.641600000000     0.529865000000     0.26505    
Ag2      Ag     0.671653333333     0.480236666667     0.790995000000     0.228176   
Ag3      Ag     0.785240000000     0.495376666667     0.822915000000     0.303031   
Ag4      Ag     0.965940000000     0.539296666667     0.837340000000     0.32127    
Ag5      Ag     0.937740000000     0.443156666667     0.716905000000     0.0889     
Ag6      Ag     0.824383333333     0.550633333333     0.901565000000     0.313659   
Ag7      Ag     0.771383333333     0.358400000000     0.970135000000     0.265058   
Ag8      Ag     0.782610000000     0.612533333333     0.750565000000     0.156584   
Ag9      Ag     0.881426666667     0.504623333333     0.677085000000     0.303042   
Ag10     Ag     0.884056666667     0.387466666667     0.749435000000     0.156553   
Ag11     Ag     0.700726666667     0.460703333333     0.662660000000     0.321275   
Ag12     Ag     0.728926666667     0.556843333333     0.783095000000     0.08886    
Ag13     Ag     0.842283333333     0.449366666667     0.598435000000     0.313657   
Ag14     Ag     0.995013333333     0.519763333333     0.709005000000     0.228157   
C1       C      0.739600000000     0.406233333333     0.572500000000    -0.181135   
C2       C      0.701466666667     0.340800000000     0.724300000000    -0.176868   
C3       C      0.710966666667     0.364166666667     0.749300000000     0.081093   
C4       C      0.755766666667     0.336066666667     0.774750000000     0.045853   
C5       C      0.739233333333     0.362033333333     0.776000000000    -0.16507    
C6       C      0.807700000000     0.408466666667     0.723700000000     0.028972   
C7       C      0.666766666667     0.417866666667     0.556250000000     0.09026    
C8       C      0.768266666667     0.459333333333     0.950050000000     0.077303   
C9       C      0.932633333333     0.413200000000     0.604650000000     0.026627   
C10      C      0.780666666667     0.426066666667     0.722000000000    -0.169136   
C11      C      0.937666666667     0.442100000000     0.628100000000     0.211218   
C12      C      0.712066666667     0.391066666667     0.545400000000     0.091889   
C13      C      0.799766666667     0.516166666667     0.972800000000     0.07639    
C14      C      0.974566666667     0.608000000000     0.749500000000     0.211824   
C15      C      0.950500000000     0.388233333333     0.612900000000    -0.197905   
C16      C      0.775433333333     0.512433333333     0.992900000000    -0.183294   
C17      C      0.719600000000     0.648600000000     0.724300000000     0.060952   
C18      C      0.760433333333     0.473966666667     0.744100000000     0.246002   
C19      C      0.828100000000     0.549433333333     0.975850000000     0.224085   
C20      C      0.730533333333     0.428933333333     0.592300000000     0.064127   
C21      C      0.788533333333     0.453666666667     0.743700000000     0.045894   
C22      C      0.906933333333     0.408500000000     0.575250000000    -0.203767   
C23      C      0.973300000000     0.565366666667     0.916200000000    -0.191879   
C24      C      0.878133333333     0.546333333333     0.756300000000     0.045938   
C25      C      0.726166666667     0.639966666667     0.909150000000     0.032759   
C26      C      0.858966666667     0.591533333333     0.776300000000     0.028979   
C27      C      0.999900000000     0.582133333333     0.943750000000     0.090277   
C28      C      0.871266666667     0.510833333333     0.549150000000    -0.195038   
C29      C      0.898400000000     0.540666666667     0.549950000000     0.077307   
C30      C      0.734033333333     0.586800000000     0.895350000000     0.026592   
C31      C      0.927066666667     0.593766666667     0.927500000000    -0.181134   
C32      C      0.886000000000     0.573933333333     0.778000000000    -0.169149   
C33      C      0.759733333333     0.591500000000     0.924750000000    -0.203759   
C34      C      0.954600000000     0.608933333333     0.954600000000     0.091889   
C35      C      0.866900000000     0.483833333333     0.527200000000     0.076392   
C36      C      0.905433333333     0.552500000000     0.878650000000     0.257615   
C37      C      0.692100000000     0.392000000000     0.750500000000     0.21184    
C38      C      0.891233333333     0.487566666667     0.507100000000    -0.183294   
C39      C      0.729000000000     0.557900000000     0.871900000000     0.21124    
C40      C      0.906233333333     0.526033333333     0.755900000000     0.245968   
C41      C      0.838566666667     0.450566666667     0.524150000000     0.224085   
C42      C      0.936133333333     0.571066666667     0.907700000000     0.064127   
C43      C      0.749933333333     0.482866666667     0.989900000000     0.083661   
C44      C      0.916733333333     0.517133333333     0.510100000000     0.08366    
C45      C      0.814066666667     0.553233333333     0.734700000000     0.050805   
C46      C      0.768166666667     0.620800000000     0.944850000000     0.052504   
C47      C      0.840433333333     0.535500000000     0.734750000000    -0.187546   
C48      C      0.716166666667     0.611766666667     0.887100000000    -0.19778    
C49      C      0.852600000000     0.446766666667     0.765300000000     0.050808   
C50      C      0.795400000000     0.489166666667     0.950850000000    -0.19503    
C51      C      0.826233333333     0.464500000000     0.765250000000    -0.187539   
C52      C      0.898500000000     0.379200000000     0.555150000000     0.052482   
C53      C      0.910900000000     0.663933333333     0.725250000000     0.045846   
C54      C      0.955700000000     0.635833333333     0.750700000000     0.081057   
C55      C      0.965200000000     0.659200000000     0.775700000000    -0.176853   
C56      C      0.927433333333     0.637966666667     0.724000000000    -0.165076   
C57      C      0.693366666667     0.434633333333     0.583800000000    -0.191865   
C58      C      0.761233333333     0.447500000000     0.621350000000     0.257611   
C59      C      0.940500000000     0.360033333333     0.590850000000     0.032851   
C60      C      0.947066666667     0.351400000000     0.775700000000     0.060936   
H1       H      0.968366666667     0.390500000000     0.632400000000     0.125237   
H2       H      0.810400000000     0.491033333333     0.937000000000     0.120407   
H3       H      0.765666666667     0.440733333333     0.935850000000     0.091833   
H4       H      0.764233333333     0.401700000000     0.578050000000     0.114408   
H5       H      0.756766666667     0.419366666667     0.706000000000     0.121024   
H6       H      0.895300000000     0.425200000000     0.569050000000     0.110295   
H7       H      0.718400000000     0.376666666667     0.531800000000     0.093441   
H8       H      0.777366666667     0.530300000000     0.507700000000     0.131496   
H9       H      0.952533333333     0.343300000000     0.596000000000     0.088586   
H10      H      0.877666666667     0.454400000000     0.779900000000     0.091129   
H11      H      0.880700000000     0.376333333333     0.535500000000     0.08775    
H12      H      0.833200000000     0.484033333333     0.779650000000     0.110197   
H13      H      0.975033333333     0.421566666667     0.550400000000     0.088551   
H14      H      0.686700000000     0.449633333333     0.596600000000     0.110467   
H15      H      0.953633333333     0.366900000000     0.793700000000     0.098092   
H16      H      0.984433333333     0.658333333333     0.793550000000     0.129394   
H17      H      0.891900000000     0.665533333333     0.707550000000     0.090096   
H18      H      0.734233333333     0.480500000000     0.503250000000     0.090135   
H19      H      0.800966666667     0.388700000000     0.709650000000     0.090479   
H20      H      0.920100000000     0.622266666667     0.706000000000     0.135392   
H21      H      0.774766666667     0.334466666667     0.792450000000     0.090094   
H22      H      0.746566666667     0.377733333333     0.794000000000     0.135394   
H23      H      0.865700000000     0.611300000000     0.790350000000     0.090476   
H24      H      0.691633333333     0.578433333333     0.949600000000     0.088554   
H25      H      0.856266666667     0.508966666667     0.563000000000     0.120408   
H26      H      0.901000000000     0.559266666667     0.564150000000     0.091833   
H27      H      0.902433333333     0.598300000000     0.921950000000     0.114408   
H28      H      0.771366666667     0.574800000000     0.930950000000     0.11029    
H29      H      0.948266666667     0.623333333333     0.968200000000     0.09344    
H30      H      0.698300000000     0.609500000000     0.867600000000     0.125221   
H31      H      0.909900000000     0.580633333333     0.794000000000     0.121027   
H32      H      0.932433333333     0.519500000000     0.996750000000     0.090135   
H33      H      0.789000000000     0.545600000000     0.720100000000     0.091127   
H34      H      0.785966666667     0.623666666667     0.964500000000     0.087742   
H35      H      0.833466666667     0.515966666667     0.720350000000     0.110198   
H36      H      0.714133333333     0.656700000000     0.904000000000     0.088591   
H37      H      0.979966666667     0.550366666667     0.903400000000     0.11047    
H38      H      0.713033333333     0.633100000000     0.706300000000     0.098093   
H39      H      0.889300000000     0.469700000000     0.992300000000     0.131494   
H40      H      0.682233333333     0.341666666667     0.706450000000     0.129396   
N1       N      0.850133333333     0.527266666667     0.844450000000    -0.03796    
N2       N      0.800400000000     0.407533333333     0.533250000000    -0.09307    
N3       N      0.934466666667     0.492033333333     0.739350000000    -0.015545   
N4       N      0.937100000000     0.525633333333     0.779700000000    -0.25648    
N5       N      0.866166666667     0.545533333333     0.873450000000    -0.234015   
N6       N      0.759333333333     0.543633333333     0.871650000000    -0.230092   
N7       N      0.913800000000     0.540333333333     0.853800000000    -0.227102   
N8       N      0.878400000000     0.524000000000     0.832450000000    -0.057932   
N9       N      0.745000000000     0.519833333333     0.846650000000    -0.06522    
N10      N      0.707333333333     0.519666666667     0.832550000000    -0.024584   
N11      N      0.954066666667     0.503200000000     0.768400000000    -0.048206   
N12      N      0.676166666667     0.434533333333     0.765500000000    -0.026603   
N13      N      0.996100000000     0.395300000000     0.725550000000    -0.287688   
N14      N      0.991166666667     0.603900000000     0.962750000000    -0.288935   
N15      N      0.746033333333     0.645966666667     0.749400000000    -0.167123   
N16      N      0.921500000000     0.543566666667     0.530600000000    -0.291049   
N17      N      0.824766666667     0.437666666667     0.546450000000    -0.222756   
N18      N      0.822433333333     0.581533333333     0.754950000000    -0.200086   
N19      N      0.696966666667     0.542233333333     0.847900000000    -0.201954   
N20      N      0.752000000000     0.645033333333     0.937500000000    -0.20554    
N21      N      0.700900000000     0.415566666667     0.774400000000    -0.306997   
N22      N      0.824366666667     0.429066666667     0.997600000000    -0.270598   
N23      N      0.904766666667     0.506433333333     0.730250000000    -0.237214   
N24      N      0.678833333333     0.577933333333     0.762900000000     0.003667   
N25      N      0.675500000000     0.396100000000     0.537250000000    -0.288936   
N26      N      0.842300000000     0.570933333333     0.502400000000    -0.270598   
N27      N      0.800533333333     0.403000000000     0.504150000000    -0.010338   
N28      N      0.914666666667     0.354966666667     0.562500000000    -0.205504   
N29      N      0.816533333333     0.472733333333     0.655550000000    -0.037964   
N30      N      0.800500000000     0.454466666667     0.626550000000    -0.234013   
N31      N      0.752866666667     0.459666666667     0.646200000000    -0.227102   
N32      N      0.907333333333     0.456366666667     0.628350000000    -0.230072   
N33      N      0.921666666667     0.480166666667     0.653350000000    -0.065232   
N34      N      0.729566666667     0.474366666667     0.720300000000    -0.256486   
N35      N      0.732200000000     0.507966666667     0.760650000000    -0.015533   
N36      N      0.866266666667     0.592466666667     0.966750000000    -0.093067   
N37      N      0.866133333333     0.597000000000     0.995850000000    -0.010333   
N38      N      0.788266666667     0.476000000000     0.667550000000    -0.057932   
N39      N      0.761900000000     0.493566666667     0.769750000000    -0.237216   
N40      N      0.990500000000     0.565466666667     0.734500000000    -0.026557   
N41      N      0.670566666667     0.604700000000     0.774450000000    -0.287662   
N42      N      0.920633333333     0.354033333333     0.750600000000    -0.167159   
N43      N      0.745166666667     0.456433333333     0.969400000000    -0.291048   
N44      N      0.841900000000     0.562333333333     0.953550000000    -0.222756   
N45      N      0.844233333333     0.418466666667     0.745050000000    -0.200097   
N46      N      0.969700000000     0.457766666667     0.652100000000    -0.201985   
N47      N      0.712600000000     0.496800000000     0.731600000000    -0.048208   
N48      N      0.965766666667     0.584433333333     0.725600000000    -0.307006   
N49      N      0.959333333333     0.480333333333     0.667450000000    -0.024541   
N50      N      0.987833333333     0.422066666667     0.737100000000     0.003744   
Ag1      Ag     0.895283333333     0.974933333333     0.029865000000     0.26505    
Ag2      Ag     0.671653333333     0.813570000000     0.290995000000     0.228176   
Ag3      Ag     0.785240000000     0.828710000000     0.322915000000     0.303031   
Ag4      Ag     0.965940000000     0.872630000000     0.337340000000     0.32127    
Ag5      Ag     0.937740000000     0.776490000000     0.216905000000     0.0889     
Ag6      Ag     0.824383333333     0.883966666667     0.401565000000     0.313659   
Ag7      Ag     0.771383333333     0.691733333333     0.470135000000     0.265058   
Ag8      Ag     0.782610000000     0.945866666667     0.250565000000     0.156584   
Ag9      Ag     0.881426666667     0.837956666667     0.177085000000     0.303042   
Ag10     Ag     0.884056666667     0.720800000000     0.249435000000     0.156553   
Ag11     Ag     0.700726666667     0.794036666667     0.162660000000     0.321275   
Ag12     Ag     0.728926666667     0.890176666667     0.283095000000     0.08886    
Ag13     Ag     0.842283333333     0.782700000000     0.098435000000     0.313657   
Ag14     Ag     0.995013333333     0.853096666667     0.209005000000     0.228157   
C1       C      0.739600000000     0.739566666667     0.072500000000    -0.181135   
C2       C      0.701466666667     0.674133333333     0.224300000000    -0.176868   
C3       C      0.710966666667     0.697500000000     0.249300000000     0.081093   
C4       C      0.755766666667     0.669400000000     0.274750000000     0.045853   
C5       C      0.739233333333     0.695366666667     0.276000000000    -0.16507    
C6       C      0.807700000000     0.741800000000     0.223700000000     0.028972   
C7       C      0.666766666667     0.751200000000     0.056250000000     0.09026    
C8       C      0.768266666667     0.792666666667     0.450050000000     0.077303   
C9       C      0.932633333333     0.746533333333     0.104650000000     0.026627   
C10      C      0.780666666667     0.759400000000     0.222000000000    -0.169136   
C11      C      0.937666666667     0.775433333333     0.128100000000     0.211218   
C12      C      0.712066666667     0.724400000000     0.045400000000     0.091889   
C13      C      0.799766666667     0.849500000000     0.472800000000     0.07639    
C14      C      0.974566666667     0.941333333333     0.249500000000     0.211824   
C15      C      0.950500000000     0.721566666667     0.112900000000    -0.197905   
C16      C      0.775433333333     0.845766666667     0.492900000000    -0.183294   
C17      C      0.719600000000     0.981933333333     0.224300000000     0.060952   
C18      C      0.760433333333     0.807300000000     0.244100000000     0.246002   
C19      C      0.828100000000     0.882766666667     0.475850000000     0.224085   
C20      C      0.730533333333     0.762266666667     0.092300000000     0.064127   
C21      C      0.788533333333     0.787000000000     0.243700000000     0.045894   
C22      C      0.906933333333     0.741833333333     0.075250000000    -0.203767   
C23      C      0.973300000000     0.898700000000     0.416200000000    -0.191879   
C24      C      0.878133333333     0.879666666667     0.256300000000     0.045938   
C25      C      0.726166666667     0.973300000000     0.409150000000     0.032759   
C26      C      0.858966666667     0.924866666667     0.276300000000     0.028979   
C27      C      0.999900000000     0.915466666667     0.443750000000     0.090277   
C28      C      0.871266666667     0.844166666667     0.049150000000    -0.195038   
C29      C      0.898400000000     0.874000000000     0.049950000000     0.077307   
C30      C      0.734033333333     0.920133333333     0.395350000000     0.026592   
C31      C      0.927066666667     0.927100000000     0.427500000000    -0.181134   
C32      C      0.886000000000     0.907266666667     0.278000000000    -0.169149   
C33      C      0.759733333333     0.924833333333     0.424750000000    -0.203759   
C34      C      0.954600000000     0.942266666667     0.454600000000     0.091889   
C35      C      0.866900000000     0.817166666667     0.027200000000     0.076392   
C36      C      0.905433333333     0.885833333333     0.378650000000     0.257615   
C37      C      0.692100000000     0.725333333333     0.250500000000     0.21184    
C38      C      0.891233333333     0.820900000000     0.007100000000    -0.183294   
C39      C      0.729000000000     0.891233333333     0.371900000000     0.21124    
C40      C      0.906233333333     0.859366666667     0.255900000000     0.245968   
C41      C      0.838566666667     0.783900000000     0.024150000000     0.224085   
C42      C      0.936133333333     0.904400000000     0.407700000000     0.064127   
C43      C      0.749933333333     0.816200000000     0.489900000000     0.083661   
C44      C      0.916733333333     0.850466666667     0.010100000000     0.08366    
C45      C      0.814066666667     0.886566666667     0.234700000000     0.050805   
C46      C      0.768166666667     0.954133333333     0.444850000000     0.052504   
C47      C      0.840433333333     0.868833333333     0.234750000000    -0.187546   
C48      C      0.716166666667     0.945100000000     0.387100000000    -0.19778    
C49      C      0.852600000000     0.780100000000     0.265300000000     0.050808   
C50      C      0.795400000000     0.822500000000     0.450850000000    -0.19503    
C51      C      0.826233333333     0.797833333333     0.265250000000    -0.187539   
C52      C      0.898500000000     0.712533333333     0.055150000000     0.052482   
C53      C      0.910900000000     0.997266666667     0.225250000000     0.045846   
C54      C      0.955700000000     0.969166666667     0.250700000000     0.081057   
C55      C      0.965200000000     0.992533333333     0.275700000000    -0.176853   
C56      C      0.927433333333     0.971300000000     0.224000000000    -0.165076   
C57      C      0.693366666667     0.767966666667     0.083800000000    -0.191865   
C58      C      0.761233333333     0.780833333333     0.121350000000     0.257611   
C59      C      0.940500000000     0.693366666667     0.090850000000     0.032851   
C60      C      0.947066666667     0.684733333333     0.275700000000     0.060936   
H1       H      0.968366666667     0.723833333333     0.132400000000     0.125237   
H2       H      0.810400000000     0.824366666667     0.437000000000     0.120407   
H3       H      0.765666666667     0.774066666667     0.435850000000     0.091833   
H4       H      0.764233333333     0.735033333333     0.078050000000     0.114408   
H5       H      0.756766666667     0.752700000000     0.206000000000     0.121024   
H6       H      0.895300000000     0.758533333333     0.069050000000     0.110295   
H7       H      0.718400000000     0.710000000000     0.031800000000     0.093441   
H8       H      0.777366666667     0.863633333333     0.007700000000     0.131496   
H9       H      0.952533333333     0.676633333333     0.096000000000     0.088586   
H10      H      0.877666666667     0.787733333333     0.279900000000     0.091129   
H11      H      0.880700000000     0.709666666667     0.035500000000     0.08775    
H12      H      0.833200000000     0.817366666667     0.279650000000     0.110197   
H13      H      0.975033333333     0.754900000000     0.050400000000     0.088551   
H14      H      0.686700000000     0.782966666667     0.096600000000     0.110467   
H15      H      0.953633333333     0.700233333333     0.293700000000     0.098092   
H16      H      0.984433333333     0.991666666667     0.293550000000     0.129394   
H17      H      0.891900000000     0.998866666667     0.207550000000     0.090096   
H18      H      0.734233333333     0.813833333333     0.003250000000     0.090135   
H19      H      0.800966666667     0.722033333333     0.209650000000     0.090479   
H20      H      0.920100000000     0.955600000000     0.206000000000     0.135392   
H21      H      0.774766666667     0.667800000000     0.292450000000     0.090094   
H22      H      0.746566666667     0.711066666667     0.294000000000     0.135394   
H23      H      0.865700000000     0.944633333333     0.290350000000     0.090476   
H24      H      0.691633333333     0.911766666667     0.449600000000     0.088554   
H25      H      0.856266666667     0.842300000000     0.063000000000     0.120408   
H26      H      0.901000000000     0.892600000000     0.064150000000     0.091833   
H27      H      0.902433333333     0.931633333333     0.421950000000     0.114408   
H28      H      0.771366666667     0.908133333333     0.430950000000     0.11029    
H29      H      0.948266666667     0.956666666667     0.468200000000     0.09344    
H30      H      0.698300000000     0.942833333333     0.367600000000     0.125221   
H31      H      0.909900000000     0.913966666667     0.294000000000     0.121027   
H32      H      0.932433333333     0.852833333333     0.496750000000     0.090135   
H33      H      0.789000000000     0.878933333333     0.220100000000     0.091127   
H34      H      0.785966666667     0.957000000000     0.464500000000     0.087742   
H35      H      0.833466666667     0.849300000000     0.220350000000     0.110198   
H36      H      0.714133333333     0.990033333333     0.404000000000     0.088591   
H37      H      0.979966666667     0.883700000000     0.403400000000     0.11047    
H38      H      0.713033333333     0.966433333333     0.206300000000     0.098093   
H39      H      0.889300000000     0.803033333333     0.492300000000     0.131494   
H40      H      0.682233333333     0.675000000000     0.206450000000     0.129396   
N1       N      0.850133333333     0.860600000000     0.344450000000    -0.03796    
N2       N      0.800400000000     0.740866666667     0.033250000000    -0.09307    
N3       N      0.934466666667     0.825366666667     0.239350000000    -0.015545   
N4       N      0.937100000000     0.858966666667     0.279700000000    -0.25648    
N5       N      0.866166666667     0.878866666667     0.373450000000    -0.234015   
N6       N      0.759333333333     0.876966666667     0.371650000000    -0.230092   
N7       N      0.913800000000     0.873666666667     0.353800000000    -0.227102   
N8       N      0.878400000000     0.857333333333     0.332450000000    -0.057932   
N9       N      0.745000000000     0.853166666667     0.346650000000    -0.06522    
N10      N      0.707333333333     0.853000000000     0.332550000000    -0.024584   
N11      N      0.954066666667     0.836533333333     0.268400000000    -0.048206   
N12      N      0.676166666667     0.767866666667     0.265500000000    -0.026603   
N13      N      0.996100000000     0.728633333333     0.225550000000    -0.287688   
N14      N      0.991166666667     0.937233333333     0.462750000000    -0.288935   
N15      N      0.746033333333     0.979300000000     0.249400000000    -0.167123   
N16      N      0.921500000000     0.876900000000     0.030600000000    -0.291049   
N17      N      0.824766666667     0.771000000000     0.046450000000    -0.222756   
N18      N      0.822433333333     0.914866666667     0.254950000000    -0.200086   
N19      N      0.696966666667     0.875566666667     0.347900000000    -0.201954   
N20      N      0.752000000000     0.978366666667     0.437500000000    -0.20554    
N21      N      0.700900000000     0.748900000000     0.274400000000    -0.306997   
N22      N      0.824366666667     0.762400000000     0.497600000000    -0.270598   
N23      N      0.904766666667     0.839766666667     0.230250000000    -0.237214   
N24      N      0.678833333333     0.911266666667     0.262900000000     0.003667   
N25      N      0.675500000000     0.729433333333     0.037250000000    -0.288936   
N26      N      0.842300000000     0.904266666667     0.002400000000    -0.270598   
N27      N      0.800533333333     0.736333333333     0.004150000000    -0.010338   
N28      N      0.914666666667     0.688300000000     0.062500000000    -0.205504   
N29      N      0.816533333333     0.806066666667     0.155550000000    -0.037964   
N30      N      0.800500000000     0.787800000000     0.126550000000    -0.234013   
N31      N      0.752866666667     0.793000000000     0.146200000000    -0.227102   
N32      N      0.907333333333     0.789700000000     0.128350000000    -0.230072   
N33      N      0.921666666667     0.813500000000     0.153350000000    -0.065232   
N34      N      0.729566666667     0.807700000000     0.220300000000    -0.256486   
N35      N      0.732200000000     0.841300000000     0.260650000000    -0.015533   
N36      N      0.866266666667     0.925800000000     0.466750000000    -0.093067   
N37      N      0.866133333333     0.930333333333     0.495850000000    -0.010333   
N38      N      0.788266666667     0.809333333333     0.167550000000    -0.057932   
N39      N      0.761900000000     0.826900000000     0.269750000000    -0.237216   
N40      N      0.990500000000     0.898800000000     0.234500000000    -0.026557   
N41      N      0.670566666667     0.938033333333     0.274450000000    -0.287662   
N42      N      0.920633333333     0.687366666667     0.250600000000    -0.167159   
N43      N      0.745166666667     0.789766666667     0.469400000000    -0.291048   
N44      N      0.841900000000     0.895666666667     0.453550000000    -0.222756   
N45      N      0.844233333333     0.751800000000     0.245050000000    -0.200097   
N46      N      0.969700000000     0.791100000000     0.152100000000    -0.201985   
N47      N      0.712600000000     0.830133333333     0.231600000000    -0.048208   
N48      N      0.965766666667     0.917766666667     0.225600000000    -0.307006   
N49      N      0.959333333333     0.813666666667     0.167450000000    -0.024541   
N50      N      0.987833333333     0.755400000000     0.237100000000     0.003744   
Ag1      Ag     0.895283333333     0.974933333333     0.529865000000     0.26505    
Ag2      Ag     0.671653333333     0.813570000000     0.790995000000     0.228176   
Ag3      Ag     0.785240000000     0.828710000000     0.822915000000     0.303031   
Ag4      Ag     0.965940000000     0.872630000000     0.837340000000     0.32127    
Ag5      Ag     0.937740000000     0.776490000000     0.716905000000     0.0889     
Ag6      Ag     0.824383333333     0.883966666667     0.901565000000     0.313659   
Ag7      Ag     0.771383333333     0.691733333333     0.970135000000     0.265058   
Ag8      Ag     0.782610000000     0.945866666667     0.750565000000     0.156584   
Ag9      Ag     0.881426666667     0.837956666667     0.677085000000     0.303042   
Ag10     Ag     0.884056666667     0.720800000000     0.749435000000     0.156553   
Ag11     Ag     0.700726666667     0.794036666667     0.662660000000     0.321275   
Ag12     Ag     0.728926666667     0.890176666667     0.783095000000     0.08886    
Ag13     Ag     0.842283333333     0.782700000000     0.598435000000     0.313657   
Ag14     Ag     0.995013333333     0.853096666667     0.709005000000     0.228157   
C1       C      0.739600000000     0.739566666667     0.572500000000    -0.181135   
C2       C      0.701466666667     0.674133333333     0.724300000000    -0.176868   
C3       C      0.710966666667     0.697500000000     0.749300000000     0.081093   
C4       C      0.755766666667     0.669400000000     0.774750000000     0.045853   
C5       C      0.739233333333     0.695366666667     0.776000000000    -0.16507    
C6       C      0.807700000000     0.741800000000     0.723700000000     0.028972   
C7       C      0.666766666667     0.751200000000     0.556250000000     0.09026    
C8       C      0.768266666667     0.792666666667     0.950050000000     0.077303   
C9       C      0.932633333333     0.746533333333     0.604650000000     0.026627   
C10      C      0.780666666667     0.759400000000     0.722000000000    -0.169136   
C11      C      0.937666666667     0.775433333333     0.628100000000     0.211218   
C12      C      0.712066666667     0.724400000000     0.545400000000     0.091889   
C13      C      0.799766666667     0.849500000000     0.972800000000     0.07639    
C14      C      0.974566666667     0.941333333333     0.749500000000     0.211824   
C15      C      0.950500000000     0.721566666667     0.612900000000    -0.197905   
C16      C      0.775433333333     0.845766666667     0.992900000000    -0.183294   
C17      C      0.719600000000     0.981933333333     0.724300000000     0.060952   
C18      C      0.760433333333     0.807300000000     0.744100000000     0.246002   
C19      C      0.828100000000     0.882766666667     0.975850000000     0.224085   
C20      C      0.730533333333     0.762266666667     0.592300000000     0.064127   
C21      C      0.788533333333     0.787000000000     0.743700000000     0.045894   
C22      C      0.906933333333     0.741833333333     0.575250000000    -0.203767   
C23      C      0.973300000000     0.898700000000     0.916200000000    -0.191879   
C24      C      0.878133333333     0.879666666667     0.756300000000     0.045938   
C25      C      0.726166666667     0.973300000000     0.909150000000     0.032759   
C26      C      0.858966666667     0.924866666667     0.776300000000     0.028979   
C27      C      0.999900000000     0.915466666667     0.943750000000     0.090277   
C28      C      0.871266666667     0.844166666667     0.549150000000    -0.195038   
C29      C      0.898400000000     0.874000000000     0.549950000000     0.077307   
C30      C      0.734033333333     0.920133333333     0.895350000000     0.026592   
C31      C      0.927066666667     0.927100000000     0.927500000000    -0.181134   
C32      C      0.886000000000     0.907266666667     0.778000000000    -0.169149   
C33      C      0.759733333333     0.924833333333     0.924750000000    -0.203759   
C34      C      0.954600000000     0.942266666667     0.954600000000     0.091889   
C35      C      0.866900000000     0.817166666667     0.527200000000     0.076392   
C36      C      0.905433333333     0.885833333333     0.878650000000     0.257615   
C37      C      0.692100000000     0.725333333333     0.750500000000     0.21184    
C38      C      0.891233333333     0.820900000000     0.507100000000    -0.183294   
C39      C      0.729000000000     0.891233333333     0.871900000000     0.21124    
C40      C      0.906233333333     0.859366666667     0.755900000000     0.245968   
C41      C      0.838566666667     0.783900000000     0.524150000000     0.224085   
C42      C      0.936133333333     0.904400000000     0.907700000000     0.064127   
C43      C      0.749933333333     0.816200000000     0.989900000000     0.083661   
C44      C      0.916733333333     0.850466666667     0.510100000000     0.08366    
C45      C      0.814066666667     0.886566666667     0.734700000000     0.050805   
C46      C      0.768166666667     0.954133333333     0.944850000000     0.052504   
C47      C      0.840433333333     0.868833333333     0.734750000000    -0.187546   
C48      C      0.716166666667     0.945100000000     0.887100000000    -0.19778    
C49      C      0.852600000000     0.780100000000     0.765300000000     0.050808   
C50      C      0.795400000000     0.822500000000     0.950850000000    -0.19503    
C51      C      0.826233333333     0.797833333333     0.765250000000    -0.187539   
C52      C      0.898500000000     0.712533333333     0.555150000000     0.052482   
C53      C      0.910900000000     0.997266666667     0.725250000000     0.045846   
C54      C      0.955700000000     0.969166666667     0.750700000000     0.081057   
C55      C      0.965200000000     0.992533333333     0.775700000000    -0.176853   
C56      C      0.927433333333     0.971300000000     0.724000000000    -0.165076   
C57      C      0.693366666667     0.767966666667     0.583800000000    -0.191865   
C58      C      0.761233333333     0.780833333333     0.621350000000     0.257611   
C59      C      0.940500000000     0.693366666667     0.590850000000     0.032851   
C60      C      0.947066666667     0.684733333333     0.775700000000     0.060936   
H1       H      0.968366666667     0.723833333333     0.632400000000     0.125237   
H2       H      0.810400000000     0.824366666667     0.937000000000     0.120407   
H3       H      0.765666666667     0.774066666667     0.935850000000     0.091833   
H4       H      0.764233333333     0.735033333333     0.578050000000     0.114408   
H5       H      0.756766666667     0.752700000000     0.706000000000     0.121024   
H6       H      0.895300000000     0.758533333333     0.569050000000     0.110295   
H7       H      0.718400000000     0.710000000000     0.531800000000     0.093441   
H8       H      0.777366666667     0.863633333333     0.507700000000     0.131496   
H9       H      0.952533333333     0.676633333333     0.596000000000     0.088586   
H10      H      0.877666666667     0.787733333333     0.779900000000     0.091129   
H11      H      0.880700000000     0.709666666667     0.535500000000     0.08775    
H12      H      0.833200000000     0.817366666667     0.779650000000     0.110197   
H13      H      0.975033333333     0.754900000000     0.550400000000     0.088551   
H14      H      0.686700000000     0.782966666667     0.596600000000     0.110467   
H15      H      0.953633333333     0.700233333333     0.793700000000     0.098092   
H16      H      0.984433333333     0.991666666667     0.793550000000     0.129394   
H17      H      0.891900000000     0.998866666667     0.707550000000     0.090096   
H18      H      0.734233333333     0.813833333333     0.503250000000     0.090135   
H19      H      0.800966666667     0.722033333333     0.709650000000     0.090479   
H20      H      0.920100000000     0.955600000000     0.706000000000     0.135392   
H21      H      0.774766666667     0.667800000000     0.792450000000     0.090094   
H22      H      0.746566666667     0.711066666667     0.794000000000     0.135394   
H23      H      0.865700000000     0.944633333333     0.790350000000     0.090476   
H24      H      0.691633333333     0.911766666667     0.949600000000     0.088554   
H25      H      0.856266666667     0.842300000000     0.563000000000     0.120408   
H26      H      0.901000000000     0.892600000000     0.564150000000     0.091833   
H27      H      0.902433333333     0.931633333333     0.921950000000     0.114408   
H28      H      0.771366666667     0.908133333333     0.930950000000     0.11029    
H29      H      0.948266666667     0.956666666667     0.968200000000     0.09344    
H30      H      0.698300000000     0.942833333333     0.867600000000     0.125221   
H31      H      0.909900000000     0.913966666667     0.794000000000     0.121027   
H32      H      0.932433333333     0.852833333333     0.996750000000     0.090135   
H33      H      0.789000000000     0.878933333333     0.720100000000     0.091127   
H34      H      0.785966666667     0.957000000000     0.964500000000     0.087742   
H35      H      0.833466666667     0.849300000000     0.720350000000     0.110198   
H36      H      0.714133333333     0.990033333333     0.904000000000     0.088591   
H37      H      0.979966666667     0.883700000000     0.903400000000     0.11047    
H38      H      0.713033333333     0.966433333333     0.706300000000     0.098093   
H39      H      0.889300000000     0.803033333333     0.992300000000     0.131494   
H40      H      0.682233333333     0.675000000000     0.706450000000     0.129396   
N1       N      0.850133333333     0.860600000000     0.844450000000    -0.03796    
N2       N      0.800400000000     0.740866666667     0.533250000000    -0.09307    
N3       N      0.934466666667     0.825366666667     0.739350000000    -0.015545   
N4       N      0.937100000000     0.858966666667     0.779700000000    -0.25648    
N5       N      0.866166666667     0.878866666667     0.873450000000    -0.234015   
N6       N      0.759333333333     0.876966666667     0.871650000000    -0.230092   
N7       N      0.913800000000     0.873666666667     0.853800000000    -0.227102   
N8       N      0.878400000000     0.857333333333     0.832450000000    -0.057932   
N9       N      0.745000000000     0.853166666667     0.846650000000    -0.06522    
N10      N      0.707333333333     0.853000000000     0.832550000000    -0.024584   
N11      N      0.954066666667     0.836533333333     0.768400000000    -0.048206   
N12      N      0.676166666667     0.767866666667     0.765500000000    -0.026603   
N13      N      0.996100000000     0.728633333333     0.725550000000    -0.287688   
N14      N      0.991166666667     0.937233333333     0.962750000000    -0.288935   
N15      N      0.746033333333     0.979300000000     0.749400000000    -0.167123   
N16      N      0.921500000000     0.876900000000     0.530600000000    -0.291049   
N17      N      0.824766666667     0.771000000000     0.546450000000    -0.222756   
N18      N      0.822433333333     0.914866666667     0.754950000000    -0.200086   
N19      N      0.696966666667     0.875566666667     0.847900000000    -0.201954   
N20      N      0.752000000000     0.978366666667     0.937500000000    -0.20554    
N21      N      0.700900000000     0.748900000000     0.774400000000    -0.306997   
N22      N      0.824366666667     0.762400000000     0.997600000000    -0.270598   
N23      N      0.904766666667     0.839766666667     0.730250000000    -0.237214   
N24      N      0.678833333333     0.911266666667     0.762900000000     0.003667   
N25      N      0.675500000000     0.729433333333     0.537250000000    -0.288936   
N26      N      0.842300000000     0.904266666667     0.502400000000    -0.270598   
N27      N      0.800533333333     0.736333333333     0.504150000000    -0.010338   
N28      N      0.914666666667     0.688300000000     0.562500000000    -0.205504   
N29      N      0.816533333333     0.806066666667     0.655550000000    -0.037964   
N30      N      0.800500000000     0.787800000000     0.626550000000    -0.234013   
N31      N      0.752866666667     0.793000000000     0.646200000000    -0.227102   
N32      N      0.907333333333     0.789700000000     0.628350000000    -0.230072   
N33      N      0.921666666667     0.813500000000     0.653350000000    -0.065232   
N34      N      0.729566666667     0.807700000000     0.720300000000    -0.256486   
N35      N      0.732200000000     0.841300000000     0.760650000000    -0.015533   
N36      N      0.866266666667     0.925800000000     0.966750000000    -0.093067   
N37      N      0.866133333333     0.930333333333     0.995850000000    -0.010333   
N38      N      0.788266666667     0.809333333333     0.667550000000    -0.057932   
N39      N      0.761900000000     0.826900000000     0.769750000000    -0.237216   
N40      N      0.990500000000     0.898800000000     0.734500000000    -0.026557   
N41      N      0.670566666667     0.938033333333     0.774450000000    -0.287662   
N42      N      0.920633333333     0.687366666667     0.750600000000    -0.167159   
N43      N      0.745166666667     0.789766666667     0.969400000000    -0.291048   
N44      N      0.841900000000     0.895666666667     0.953550000000    -0.222756   
N45      N      0.844233333333     0.751800000000     0.745050000000    -0.200097   
N46      N      0.969700000000     0.791100000000     0.652100000000    -0.201985   
N47      N      0.712600000000     0.830133333333     0.731600000000    -0.048208   
N48      N      0.965766666667     0.917766666667     0.725600000000    -0.307006   
N49      N      0.959333333333     0.813666666667     0.667450000000    -0.024541   
N50      N      0.987833333333     0.755400000000     0.737100000000     0.003744   


