data_KAYBIX_clean

_audit_creation_method RASPA-1.0
_audit_creation_date 2025-9-8
_audit_author_name ''

_cell_length_a    6.4463
_cell_length_b    10.9728
_cell_length_c    16.0996
_cell_angle_alpha 90
_cell_angle_beta  99.775
_cell_angle_gamma 90
_cell_volume      33667.7

_symmetry_cell_setting          triclinic
_symmetry_space_group_name_Hall 'P 1'
_symmetry_space_group_name_H-M  'P 1'
_symmetry_Int_Tables_number     1

_symmetry_equiv_pos_as_xyz 'x,y,z'

loop_
_atom_site_label
_atom_site_type_symbol
_atom_site_fract_x
_atom_site_fract_y
_atom_site_fract_z
_atom_site_charge
C        C      0.002380000000     0.229900000000     0.351300000000     0.076      
C        C      0.165720000000     0.267666666667     0.411500000000     0.076      
C        C      0.141840000000     0.243066666667     0.381950000000     0.076      
C        C      0.024340000000     0.254133333333     0.382500000000     0.076      
C        C      0.160020000000     0.224333333333     0.351450000000     0.076      
C        C      0.024280000000     0.208200000000     0.319650000000     0.076      
C        C      0.146140000000     0.289100000000     0.445150000000     0.076      
C        C      0.097620000000     0.063233333333     0.398700000000     0.076      
C        C      0.134280000000     0.101000000000     0.338500000000     0.076      
C        C      0.158160000000     0.076400000000     0.368050000000     0.076      
C        C      0.075660000000     0.087466666667     0.367500000000     0.076      
C        C      0.139980000000     0.057666666667     0.398550000000     0.076      
C        C      0.075720000000     0.041533333333     0.430350000000     0.076      
C        C      0.153860000000     0.122433333333     0.304850000000     0.076      
C        C      0.197620000000     0.103433333333     0.148700000000     0.076      
C        C      0.034280000000     0.065666666667     0.088500000000     0.076      
C        C      0.058160000000     0.090266666667     0.118050000000     0.076      
C        C      0.175660000000     0.079200000000     0.117500000000     0.076      
C        C      0.039980000000     0.109000000000     0.148550000000     0.076      
C        C      0.175720000000     0.125133333333     0.180350000000     0.076      
C        C      0.053860000000     0.044233333333     0.054850000000     0.076      
C        C      0.102380000000     0.270100000000     0.101300000000     0.076      
C        C      0.065720000000     0.232333333333     0.161500000000     0.076      
C        C      0.041840000000     0.256933333333     0.131950000000     0.076      
C        C      0.124340000000     0.245866666667     0.132500000000     0.076      
C        C      0.060020000000     0.275666666667     0.101450000000     0.076      
C        C      0.124280000000     0.291800000000     0.069650000000     0.076      
C        C      0.046140000000     0.210900000000     0.195150000000     0.076      
C        C      0.002380000000     0.229900000000     0.851300000000     0.076      
C        C      0.165720000000     0.267666666667     0.911500000000     0.076      
C        C      0.141840000000     0.243066666667     0.881950000000     0.076      
C        C      0.024340000000     0.254133333333     0.882500000000     0.076      
C        C      0.160020000000     0.224333333333     0.851450000000     0.076      
C        C      0.024280000000     0.208200000000     0.819650000000     0.076      
C        C      0.146140000000     0.289100000000     0.945150000000     0.076      
C        C      0.097620000000     0.063233333333     0.898700000000     0.076      
C        C      0.134280000000     0.101000000000     0.838500000000     0.076      
C        C      0.158160000000     0.076400000000     0.868050000000     0.076      
C        C      0.075660000000     0.087466666667     0.867500000000     0.076      
C        C      0.139980000000     0.057666666667     0.898550000000     0.076      
C        C      0.075720000000     0.041533333333     0.930350000000     0.076      
C        C      0.153860000000     0.122433333333     0.804850000000     0.076      
C        C      0.197620000000     0.103433333333     0.648700000000     0.076      
C        C      0.034280000000     0.065666666667     0.588500000000     0.076      
C        C      0.058160000000     0.090266666667     0.618050000000     0.076      
C        C      0.175660000000     0.079200000000     0.617500000000     0.076      
C        C      0.039980000000     0.109000000000     0.648550000000     0.076      
C        C      0.175720000000     0.125133333333     0.680350000000     0.076      
C        C      0.053860000000     0.044233333333     0.554850000000     0.076      
C        C      0.102380000000     0.270100000000     0.601300000000     0.076      
C        C      0.065720000000     0.232333333333     0.661500000000     0.076      
C        C      0.041840000000     0.256933333333     0.631950000000     0.076      
C        C      0.124340000000     0.245866666667     0.632500000000     0.076      
C        C      0.060020000000     0.275666666667     0.601450000000     0.076      
C        C      0.124280000000     0.291800000000     0.569650000000     0.076      
C        C      0.046140000000     0.210900000000     0.695150000000     0.076      
C        C      0.002380000000     0.563233333333     0.351300000000     0.076      
C        C      0.165720000000     0.601000000000     0.411500000000     0.076      
C        C      0.141840000000     0.576400000000     0.381950000000     0.076      
C        C      0.024340000000     0.587466666667     0.382500000000     0.076      
C        C      0.160020000000     0.557666666667     0.351450000000     0.076      
C        C      0.024280000000     0.541533333333     0.319650000000     0.076      
C        C      0.146140000000     0.622433333333     0.445150000000     0.076      
C        C      0.097620000000     0.396566666667     0.398700000000     0.076      
C        C      0.134280000000     0.434333333333     0.338500000000     0.076      
C        C      0.158160000000     0.409733333333     0.368050000000     0.076      
C        C      0.075660000000     0.420800000000     0.367500000000     0.076      
C        C      0.139980000000     0.391000000000     0.398550000000     0.076      
C        C      0.075720000000     0.374866666667     0.430350000000     0.076      
C        C      0.153860000000     0.455766666667     0.304850000000     0.076      
C        C      0.197620000000     0.436766666667     0.148700000000     0.076      
C        C      0.034280000000     0.399000000000     0.088500000000     0.076      
C        C      0.058160000000     0.423600000000     0.118050000000     0.076      
C        C      0.175660000000     0.412533333333     0.117500000000     0.076      
C        C      0.039980000000     0.442333333333     0.148550000000     0.076      
C        C      0.175720000000     0.458466666667     0.180350000000     0.076      
C        C      0.053860000000     0.377566666667     0.054850000000     0.076      
C        C      0.102380000000     0.603433333333     0.101300000000     0.076      
C        C      0.065720000000     0.565666666667     0.161500000000     0.076      
C        C      0.041840000000     0.590266666667     0.131950000000     0.076      
C        C      0.124340000000     0.579200000000     0.132500000000     0.076      
C        C      0.060020000000     0.609000000000     0.101450000000     0.076      
C        C      0.124280000000     0.625133333333     0.069650000000     0.076      
C        C      0.046140000000     0.544233333333     0.195150000000     0.076      
C        C      0.002380000000     0.563233333333     0.851300000000     0.076      
C        C      0.165720000000     0.601000000000     0.911500000000     0.076      
C        C      0.141840000000     0.576400000000     0.881950000000     0.076      
C        C      0.024340000000     0.587466666667     0.882500000000     0.076      
C        C      0.160020000000     0.557666666667     0.851450000000     0.076      
C        C      0.024280000000     0.541533333333     0.819650000000     0.076      
C        C      0.146140000000     0.622433333333     0.945150000000     0.076      
C        C      0.097620000000     0.396566666667     0.898700000000     0.076      
C        C      0.134280000000     0.434333333333     0.838500000000     0.076      
C        C      0.158160000000     0.409733333333     0.868050000000     0.076      
C        C      0.075660000000     0.420800000000     0.867500000000     0.076      
C        C      0.139980000000     0.391000000000     0.898550000000     0.076      
C        C      0.075720000000     0.374866666667     0.930350000000     0.076      
C        C      0.153860000000     0.455766666667     0.804850000000     0.076      
C        C      0.197620000000     0.436766666667     0.648700000000     0.076      
C        C      0.034280000000     0.399000000000     0.588500000000     0.076      
C        C      0.058160000000     0.423600000000     0.618050000000     0.076      
C        C      0.175660000000     0.412533333333     0.617500000000     0.076      
C        C      0.039980000000     0.442333333333     0.648550000000     0.076      
C        C      0.175720000000     0.458466666667     0.680350000000     0.076      
C        C      0.053860000000     0.377566666667     0.554850000000     0.076      
C        C      0.102380000000     0.603433333333     0.601300000000     0.076      
C        C      0.065720000000     0.565666666667     0.661500000000     0.076      
C        C      0.041840000000     0.590266666667     0.631950000000     0.076      
C        C      0.124340000000     0.579200000000     0.632500000000     0.076      
C        C      0.060020000000     0.609000000000     0.601450000000     0.076      
C        C      0.124280000000     0.625133333333     0.569650000000     0.076      
C        C      0.046140000000     0.544233333333     0.695150000000     0.076      
C        C      0.002380000000     0.896566666667     0.351300000000     0.076      
C        C      0.165720000000     0.934333333333     0.411500000000     0.076      
C        C      0.141840000000     0.909733333333     0.381950000000     0.076      
C        C      0.024340000000     0.920800000000     0.382500000000     0.076      
C        C      0.160020000000     0.891000000000     0.351450000000     0.076      
C        C      0.024280000000     0.874866666667     0.319650000000     0.076      
C        C      0.146140000000     0.955766666667     0.445150000000     0.076      
C        C      0.097620000000     0.729900000000     0.398700000000     0.076      
C        C      0.134280000000     0.767666666667     0.338500000000     0.076      
C        C      0.158160000000     0.743066666667     0.368050000000     0.076      
C        C      0.075660000000     0.754133333333     0.367500000000     0.076      
C        C      0.139980000000     0.724333333333     0.398550000000     0.076      
C        C      0.075720000000     0.708200000000     0.430350000000     0.076      
C        C      0.153860000000     0.789100000000     0.304850000000     0.076      
C        C      0.197620000000     0.770100000000     0.148700000000     0.076      
C        C      0.034280000000     0.732333333333     0.088500000000     0.076      
C        C      0.058160000000     0.756933333333     0.118050000000     0.076      
C        C      0.175660000000     0.745866666667     0.117500000000     0.076      
C        C      0.039980000000     0.775666666667     0.148550000000     0.076      
C        C      0.175720000000     0.791800000000     0.180350000000     0.076      
C        C      0.053860000000     0.710900000000     0.054850000000     0.076      
C        C      0.102380000000     0.936766666667     0.101300000000     0.076      
C        C      0.065720000000     0.899000000000     0.161500000000     0.076      
C        C      0.041840000000     0.923600000000     0.131950000000     0.076      
C        C      0.124340000000     0.912533333333     0.132500000000     0.076      
C        C      0.060020000000     0.942333333333     0.101450000000     0.076      
C        C      0.124280000000     0.958466666667     0.069650000000     0.076      
C        C      0.046140000000     0.877566666667     0.195150000000     0.076      
C        C      0.002380000000     0.896566666667     0.851300000000     0.076      
C        C      0.165720000000     0.934333333333     0.911500000000     0.076      
C        C      0.141840000000     0.909733333333     0.881950000000     0.076      
C        C      0.024340000000     0.920800000000     0.882500000000     0.076      
C        C      0.160020000000     0.891000000000     0.851450000000     0.076      
C        C      0.024280000000     0.874866666667     0.819650000000     0.076      
C        C      0.146140000000     0.955766666667     0.945150000000     0.076      
C        C      0.097620000000     0.729900000000     0.898700000000     0.076      
C        C      0.134280000000     0.767666666667     0.838500000000     0.076      
C        C      0.158160000000     0.743066666667     0.868050000000     0.076      
C        C      0.075660000000     0.754133333333     0.867500000000     0.076      
C        C      0.139980000000     0.724333333333     0.898550000000     0.076      
C        C      0.075720000000     0.708200000000     0.930350000000     0.076      
C        C      0.153860000000     0.789100000000     0.804850000000     0.076      
C        C      0.197620000000     0.770100000000     0.648700000000     0.076      
C        C      0.034280000000     0.732333333333     0.588500000000     0.076      
C        C      0.058160000000     0.756933333333     0.618050000000     0.076      
C        C      0.175660000000     0.745866666667     0.617500000000     0.076      
C        C      0.039980000000     0.775666666667     0.648550000000     0.076      
C        C      0.175720000000     0.791800000000     0.680350000000     0.076      
C        C      0.053860000000     0.710900000000     0.554850000000     0.076      
C        C      0.102380000000     0.936766666667     0.601300000000     0.076      
C        C      0.065720000000     0.899000000000     0.661500000000     0.076      
C        C      0.041840000000     0.923600000000     0.631950000000     0.076      
C        C      0.124340000000     0.912533333333     0.632500000000     0.076      
C        C      0.060020000000     0.942333333333     0.601450000000     0.076      
C        C      0.124280000000     0.958466666667     0.569650000000     0.076      
C        C      0.046140000000     0.877566666667     0.695150000000     0.076      
C        C      0.202380000000     0.229900000000     0.351300000000     0.076      
C        C      0.365720000000     0.267666666667     0.411500000000     0.076      
C        C      0.341840000000     0.243066666667     0.381950000000     0.076      
C        C      0.224340000000     0.254133333333     0.382500000000     0.076      
C        C      0.360020000000     0.224333333333     0.351450000000     0.076      
C        C      0.224280000000     0.208200000000     0.319650000000     0.076      
C        C      0.346140000000     0.289100000000     0.445150000000     0.076      
C        C      0.297620000000     0.063233333333     0.398700000000     0.076      
C        C      0.334280000000     0.101000000000     0.338500000000     0.076      
C        C      0.358160000000     0.076400000000     0.368050000000     0.076      
C        C      0.275660000000     0.087466666667     0.367500000000     0.076      
C        C      0.339980000000     0.057666666667     0.398550000000     0.076      
C        C      0.275720000000     0.041533333333     0.430350000000     0.076      
C        C      0.353860000000     0.122433333333     0.304850000000     0.076      
C        C      0.397620000000     0.103433333333     0.148700000000     0.076      
C        C      0.234280000000     0.065666666667     0.088500000000     0.076      
C        C      0.258160000000     0.090266666667     0.118050000000     0.076      
C        C      0.375660000000     0.079200000000     0.117500000000     0.076      
C        C      0.239980000000     0.109000000000     0.148550000000     0.076      
C        C      0.375720000000     0.125133333333     0.180350000000     0.076      
C        C      0.253860000000     0.044233333333     0.054850000000     0.076      
C        C      0.302380000000     0.270100000000     0.101300000000     0.076      
C        C      0.265720000000     0.232333333333     0.161500000000     0.076      
C        C      0.241840000000     0.256933333333     0.131950000000     0.076      
C        C      0.324340000000     0.245866666667     0.132500000000     0.076      
C        C      0.260020000000     0.275666666667     0.101450000000     0.076      
C        C      0.324280000000     0.291800000000     0.069650000000     0.076      
C        C      0.246140000000     0.210900000000     0.195150000000     0.076      
C        C      0.202380000000     0.229900000000     0.851300000000     0.076      
C        C      0.365720000000     0.267666666667     0.911500000000     0.076      
C        C      0.341840000000     0.243066666667     0.881950000000     0.076      
C        C      0.224340000000     0.254133333333     0.882500000000     0.076      
C        C      0.360020000000     0.224333333333     0.851450000000     0.076      
C        C      0.224280000000     0.208200000000     0.819650000000     0.076      
C        C      0.346140000000     0.289100000000     0.945150000000     0.076      
C        C      0.297620000000     0.063233333333     0.898700000000     0.076      
C        C      0.334280000000     0.101000000000     0.838500000000     0.076      
C        C      0.358160000000     0.076400000000     0.868050000000     0.076      
C        C      0.275660000000     0.087466666667     0.867500000000     0.076      
C        C      0.339980000000     0.057666666667     0.898550000000     0.076      
C        C      0.275720000000     0.041533333333     0.930350000000     0.076      
C        C      0.353860000000     0.122433333333     0.804850000000     0.076      
C        C      0.397620000000     0.103433333333     0.648700000000     0.076      
C        C      0.234280000000     0.065666666667     0.588500000000     0.076      
C        C      0.258160000000     0.090266666667     0.618050000000     0.076      
C        C      0.375660000000     0.079200000000     0.617500000000     0.076      
C        C      0.239980000000     0.109000000000     0.648550000000     0.076      
C        C      0.375720000000     0.125133333333     0.680350000000     0.076      
C        C      0.253860000000     0.044233333333     0.554850000000     0.076      
C        C      0.302380000000     0.270100000000     0.601300000000     0.076      
C        C      0.265720000000     0.232333333333     0.661500000000     0.076      
C        C      0.241840000000     0.256933333333     0.631950000000     0.076      
C        C      0.324340000000     0.245866666667     0.632500000000     0.076      
C        C      0.260020000000     0.275666666667     0.601450000000     0.076      
C        C      0.324280000000     0.291800000000     0.569650000000     0.076      
C        C      0.246140000000     0.210900000000     0.695150000000     0.076      
C        C      0.202380000000     0.563233333333     0.351300000000     0.076      
C        C      0.365720000000     0.601000000000     0.411500000000     0.076      
C        C      0.341840000000     0.576400000000     0.381950000000     0.076      
C        C      0.224340000000     0.587466666667     0.382500000000     0.076      
C        C      0.360020000000     0.557666666667     0.351450000000     0.076      
C        C      0.224280000000     0.541533333333     0.319650000000     0.076      
C        C      0.346140000000     0.622433333333     0.445150000000     0.076      
C        C      0.297620000000     0.396566666667     0.398700000000     0.076      
C        C      0.334280000000     0.434333333333     0.338500000000     0.076      
C        C      0.358160000000     0.409733333333     0.368050000000     0.076      
C        C      0.275660000000     0.420800000000     0.367500000000     0.076      
C        C      0.339980000000     0.391000000000     0.398550000000     0.076      
C        C      0.275720000000     0.374866666667     0.430350000000     0.076      
C        C      0.353860000000     0.455766666667     0.304850000000     0.076      
C        C      0.397620000000     0.436766666667     0.148700000000     0.076      
C        C      0.234280000000     0.399000000000     0.088500000000     0.076      
C        C      0.258160000000     0.423600000000     0.118050000000     0.076      
C        C      0.375660000000     0.412533333333     0.117500000000     0.076      
C        C      0.239980000000     0.442333333333     0.148550000000     0.076      
C        C      0.375720000000     0.458466666667     0.180350000000     0.076      
C        C      0.253860000000     0.377566666667     0.054850000000     0.076      
C        C      0.302380000000     0.603433333333     0.101300000000     0.076      
C        C      0.265720000000     0.565666666667     0.161500000000     0.076      
C        C      0.241840000000     0.590266666667     0.131950000000     0.076      
C        C      0.324340000000     0.579200000000     0.132500000000     0.076      
C        C      0.260020000000     0.609000000000     0.101450000000     0.076      
C        C      0.324280000000     0.625133333333     0.069650000000     0.076      
C        C      0.246140000000     0.544233333333     0.195150000000     0.076      
C        C      0.202380000000     0.563233333333     0.851300000000     0.076      
C        C      0.365720000000     0.601000000000     0.911500000000     0.076      
C        C      0.341840000000     0.576400000000     0.881950000000     0.076      
C        C      0.224340000000     0.587466666667     0.882500000000     0.076      
C        C      0.360020000000     0.557666666667     0.851450000000     0.076      
C        C      0.224280000000     0.541533333333     0.819650000000     0.076      
C        C      0.346140000000     0.622433333333     0.945150000000     0.076      
C        C      0.297620000000     0.396566666667     0.898700000000     0.076      
C        C      0.334280000000     0.434333333333     0.838500000000     0.076      
C        C      0.358160000000     0.409733333333     0.868050000000     0.076      
C        C      0.275660000000     0.420800000000     0.867500000000     0.076      
C        C      0.339980000000     0.391000000000     0.898550000000     0.076      
C        C      0.275720000000     0.374866666667     0.930350000000     0.076      
C        C      0.353860000000     0.455766666667     0.804850000000     0.076      
C        C      0.397620000000     0.436766666667     0.648700000000     0.076      
C        C      0.234280000000     0.399000000000     0.588500000000     0.076      
C        C      0.258160000000     0.423600000000     0.618050000000     0.076      
C        C      0.375660000000     0.412533333333     0.617500000000     0.076      
C        C      0.239980000000     0.442333333333     0.648550000000     0.076      
C        C      0.375720000000     0.458466666667     0.680350000000     0.076      
C        C      0.253860000000     0.377566666667     0.554850000000     0.076      
C        C      0.302380000000     0.603433333333     0.601300000000     0.076      
C        C      0.265720000000     0.565666666667     0.661500000000     0.076      
C        C      0.241840000000     0.590266666667     0.631950000000     0.076      
C        C      0.324340000000     0.579200000000     0.632500000000     0.076      
C        C      0.260020000000     0.609000000000     0.601450000000     0.076      
C        C      0.324280000000     0.625133333333     0.569650000000     0.076      
C        C      0.246140000000     0.544233333333     0.695150000000     0.076      
C        C      0.202380000000     0.896566666667     0.351300000000     0.076      
C        C      0.365720000000     0.934333333333     0.411500000000     0.076      
C        C      0.341840000000     0.909733333333     0.381950000000     0.076      
C        C      0.224340000000     0.920800000000     0.382500000000     0.076      
C        C      0.360020000000     0.891000000000     0.351450000000     0.076      
C        C      0.224280000000     0.874866666667     0.319650000000     0.076      
C        C      0.346140000000     0.955766666667     0.445150000000     0.076      
C        C      0.297620000000     0.729900000000     0.398700000000     0.076      
C        C      0.334280000000     0.767666666667     0.338500000000     0.076      
C        C      0.358160000000     0.743066666667     0.368050000000     0.076      
C        C      0.275660000000     0.754133333333     0.367500000000     0.076      
C        C      0.339980000000     0.724333333333     0.398550000000     0.076      
C        C      0.275720000000     0.708200000000     0.430350000000     0.076      
C        C      0.353860000000     0.789100000000     0.304850000000     0.076      
C        C      0.397620000000     0.770100000000     0.148700000000     0.076      
C        C      0.234280000000     0.732333333333     0.088500000000     0.076      
C        C      0.258160000000     0.756933333333     0.118050000000     0.076      
C        C      0.375660000000     0.745866666667     0.117500000000     0.076      
C        C      0.239980000000     0.775666666667     0.148550000000     0.076      
C        C      0.375720000000     0.791800000000     0.180350000000     0.076      
C        C      0.253860000000     0.710900000000     0.054850000000     0.076      
C        C      0.302380000000     0.936766666667     0.101300000000     0.076      
C        C      0.265720000000     0.899000000000     0.161500000000     0.076      
C        C      0.241840000000     0.923600000000     0.131950000000     0.076      
C        C      0.324340000000     0.912533333333     0.132500000000     0.076      
C        C      0.260020000000     0.942333333333     0.101450000000     0.076      
C        C      0.324280000000     0.958466666667     0.069650000000     0.076      
C        C      0.246140000000     0.877566666667     0.195150000000     0.076      
C        C      0.202380000000     0.896566666667     0.851300000000     0.076      
C        C      0.365720000000     0.934333333333     0.911500000000     0.076      
C        C      0.341840000000     0.909733333333     0.881950000000     0.076      
C        C      0.224340000000     0.920800000000     0.882500000000     0.076      
C        C      0.360020000000     0.891000000000     0.851450000000     0.076      
C        C      0.224280000000     0.874866666667     0.819650000000     0.076      
C        C      0.346140000000     0.955766666667     0.945150000000     0.076      
C        C      0.297620000000     0.729900000000     0.898700000000     0.076      
C        C      0.334280000000     0.767666666667     0.838500000000     0.076      
C        C      0.358160000000     0.743066666667     0.868050000000     0.076      
C        C      0.275660000000     0.754133333333     0.867500000000     0.076      
C        C      0.339980000000     0.724333333333     0.898550000000     0.076      
C        C      0.275720000000     0.708200000000     0.930350000000     0.076      
C        C      0.353860000000     0.789100000000     0.804850000000     0.076      
C        C      0.397620000000     0.770100000000     0.648700000000     0.076      
C        C      0.234280000000     0.732333333333     0.588500000000     0.076      
C        C      0.258160000000     0.756933333333     0.618050000000     0.076      
C        C      0.375660000000     0.745866666667     0.617500000000     0.076      
C        C      0.239980000000     0.775666666667     0.648550000000     0.076      
C        C      0.375720000000     0.791800000000     0.680350000000     0.076      
C        C      0.253860000000     0.710900000000     0.554850000000     0.076      
C        C      0.302380000000     0.936766666667     0.601300000000     0.076      
C        C      0.265720000000     0.899000000000     0.661500000000     0.076      
C        C      0.241840000000     0.923600000000     0.631950000000     0.076      
C        C      0.324340000000     0.912533333333     0.632500000000     0.076      
C        C      0.260020000000     0.942333333333     0.601450000000     0.076      
C        C      0.324280000000     0.958466666667     0.569650000000     0.076      
C        C      0.246140000000     0.877566666667     0.695150000000     0.076      
C        C      0.402380000000     0.229900000000     0.351300000000     0.076      
C        C      0.565720000000     0.267666666667     0.411500000000     0.076      
C        C      0.541840000000     0.243066666667     0.381950000000     0.076      
C        C      0.424340000000     0.254133333333     0.382500000000     0.076      
C        C      0.560020000000     0.224333333333     0.351450000000     0.076      
C        C      0.424280000000     0.208200000000     0.319650000000     0.076      
C        C      0.546140000000     0.289100000000     0.445150000000     0.076      
C        C      0.497620000000     0.063233333333     0.398700000000     0.076      
C        C      0.534280000000     0.101000000000     0.338500000000     0.076      
C        C      0.558160000000     0.076400000000     0.368050000000     0.076      
C        C      0.475660000000     0.087466666667     0.367500000000     0.076      
C        C      0.539980000000     0.057666666667     0.398550000000     0.076      
C        C      0.475720000000     0.041533333333     0.430350000000     0.076      
C        C      0.553860000000     0.122433333333     0.304850000000     0.076      
C        C      0.597620000000     0.103433333333     0.148700000000     0.076      
C        C      0.434280000000     0.065666666667     0.088500000000     0.076      
C        C      0.458160000000     0.090266666667     0.118050000000     0.076      
C        C      0.575660000000     0.079200000000     0.117500000000     0.076      
C        C      0.439980000000     0.109000000000     0.148550000000     0.076      
C        C      0.575720000000     0.125133333333     0.180350000000     0.076      
C        C      0.453860000000     0.044233333333     0.054850000000     0.076      
C        C      0.502380000000     0.270100000000     0.101300000000     0.076      
C        C      0.465720000000     0.232333333333     0.161500000000     0.076      
C        C      0.441840000000     0.256933333333     0.131950000000     0.076      
C        C      0.524340000000     0.245866666667     0.132500000000     0.076      
C        C      0.460020000000     0.275666666667     0.101450000000     0.076      
C        C      0.524280000000     0.291800000000     0.069650000000     0.076      
C        C      0.446140000000     0.210900000000     0.195150000000     0.076      
C        C      0.402380000000     0.229900000000     0.851300000000     0.076      
C        C      0.565720000000     0.267666666667     0.911500000000     0.076      
C        C      0.541840000000     0.243066666667     0.881950000000     0.076      
C        C      0.424340000000     0.254133333333     0.882500000000     0.076      
C        C      0.560020000000     0.224333333333     0.851450000000     0.076      
C        C      0.424280000000     0.208200000000     0.819650000000     0.076      
C        C      0.546140000000     0.289100000000     0.945150000000     0.076      
C        C      0.497620000000     0.063233333333     0.898700000000     0.076      
C        C      0.534280000000     0.101000000000     0.838500000000     0.076      
C        C      0.558160000000     0.076400000000     0.868050000000     0.076      
C        C      0.475660000000     0.087466666667     0.867500000000     0.076      
C        C      0.539980000000     0.057666666667     0.898550000000     0.076      
C        C      0.475720000000     0.041533333333     0.930350000000     0.076      
C        C      0.553860000000     0.122433333333     0.804850000000     0.076      
C        C      0.597620000000     0.103433333333     0.648700000000     0.076      
C        C      0.434280000000     0.065666666667     0.588500000000     0.076      
C        C      0.458160000000     0.090266666667     0.618050000000     0.076      
C        C      0.575660000000     0.079200000000     0.617500000000     0.076      
C        C      0.439980000000     0.109000000000     0.648550000000     0.076      
C        C      0.575720000000     0.125133333333     0.680350000000     0.076      
C        C      0.453860000000     0.044233333333     0.554850000000     0.076      
C        C      0.502380000000     0.270100000000     0.601300000000     0.076      
C        C      0.465720000000     0.232333333333     0.661500000000     0.076      
C        C      0.441840000000     0.256933333333     0.631950000000     0.076      
C        C      0.524340000000     0.245866666667     0.632500000000     0.076      
C        C      0.460020000000     0.275666666667     0.601450000000     0.076      
C        C      0.524280000000     0.291800000000     0.569650000000     0.076      
C        C      0.446140000000     0.210900000000     0.695150000000     0.076      
C        C      0.402380000000     0.563233333333     0.351300000000     0.076      
C        C      0.565720000000     0.601000000000     0.411500000000     0.076      
C        C      0.541840000000     0.576400000000     0.381950000000     0.076      
C        C      0.424340000000     0.587466666667     0.382500000000     0.076      
C        C      0.560020000000     0.557666666667     0.351450000000     0.076      
C        C      0.424280000000     0.541533333333     0.319650000000     0.076      
C        C      0.546140000000     0.622433333333     0.445150000000     0.076      
C        C      0.497620000000     0.396566666667     0.398700000000     0.076      
C        C      0.534280000000     0.434333333333     0.338500000000     0.076      
C        C      0.558160000000     0.409733333333     0.368050000000     0.076      
C        C      0.475660000000     0.420800000000     0.367500000000     0.076      
C        C      0.539980000000     0.391000000000     0.398550000000     0.076      
C        C      0.475720000000     0.374866666667     0.430350000000     0.076      
C        C      0.553860000000     0.455766666667     0.304850000000     0.076      
C        C      0.597620000000     0.436766666667     0.148700000000     0.076      
C        C      0.434280000000     0.399000000000     0.088500000000     0.076      
C        C      0.458160000000     0.423600000000     0.118050000000     0.076      
C        C      0.575660000000     0.412533333333     0.117500000000     0.076      
C        C      0.439980000000     0.442333333333     0.148550000000     0.076      
C        C      0.575720000000     0.458466666667     0.180350000000     0.076      
C        C      0.453860000000     0.377566666667     0.054850000000     0.076      
C        C      0.502380000000     0.603433333333     0.101300000000     0.076      
C        C      0.465720000000     0.565666666667     0.161500000000     0.076      
C        C      0.441840000000     0.590266666667     0.131950000000     0.076      
C        C      0.524340000000     0.579200000000     0.132500000000     0.076      
C        C      0.460020000000     0.609000000000     0.101450000000     0.076      
C        C      0.524280000000     0.625133333333     0.069650000000     0.076      
C        C      0.446140000000     0.544233333333     0.195150000000     0.076      
C        C      0.402380000000     0.563233333333     0.851300000000     0.076      
C        C      0.565720000000     0.601000000000     0.911500000000     0.076      
C        C      0.541840000000     0.576400000000     0.881950000000     0.076      
C        C      0.424340000000     0.587466666667     0.882500000000     0.076      
C        C      0.560020000000     0.557666666667     0.851450000000     0.076      
C        C      0.424280000000     0.541533333333     0.819650000000     0.076      
C        C      0.546140000000     0.622433333333     0.945150000000     0.076      
C        C      0.497620000000     0.396566666667     0.898700000000     0.076      
C        C      0.534280000000     0.434333333333     0.838500000000     0.076      
C        C      0.558160000000     0.409733333333     0.868050000000     0.076      
C        C      0.475660000000     0.420800000000     0.867500000000     0.076      
C        C      0.539980000000     0.391000000000     0.898550000000     0.076      
C        C      0.475720000000     0.374866666667     0.930350000000     0.076      
C        C      0.553860000000     0.455766666667     0.804850000000     0.076      
C        C      0.597620000000     0.436766666667     0.648700000000     0.076      
C        C      0.434280000000     0.399000000000     0.588500000000     0.076      
C        C      0.458160000000     0.423600000000     0.618050000000     0.076      
C        C      0.575660000000     0.412533333333     0.617500000000     0.076      
C        C      0.439980000000     0.442333333333     0.648550000000     0.076      
C        C      0.575720000000     0.458466666667     0.680350000000     0.076      
C        C      0.453860000000     0.377566666667     0.554850000000     0.076      
C        C      0.502380000000     0.603433333333     0.601300000000     0.076      
C        C      0.465720000000     0.565666666667     0.661500000000     0.076      
C        C      0.441840000000     0.590266666667     0.631950000000     0.076      
C        C      0.524340000000     0.579200000000     0.632500000000     0.076      
C        C      0.460020000000     0.609000000000     0.601450000000     0.076      
C        C      0.524280000000     0.625133333333     0.569650000000     0.076      
C        C      0.446140000000     0.544233333333     0.695150000000     0.076      
C        C      0.402380000000     0.896566666667     0.351300000000     0.076      
C        C      0.565720000000     0.934333333333     0.411500000000     0.076      
C        C      0.541840000000     0.909733333333     0.381950000000     0.076      
C        C      0.424340000000     0.920800000000     0.382500000000     0.076      
C        C      0.560020000000     0.891000000000     0.351450000000     0.076      
C        C      0.424280000000     0.874866666667     0.319650000000     0.076      
C        C      0.546140000000     0.955766666667     0.445150000000     0.076      
C        C      0.497620000000     0.729900000000     0.398700000000     0.076      
C        C      0.534280000000     0.767666666667     0.338500000000     0.076      
C        C      0.558160000000     0.743066666667     0.368050000000     0.076      
C        C      0.475660000000     0.754133333333     0.367500000000     0.076      
C        C      0.539980000000     0.724333333333     0.398550000000     0.076      
C        C      0.475720000000     0.708200000000     0.430350000000     0.076      
C        C      0.553860000000     0.789100000000     0.304850000000     0.076      
C        C      0.597620000000     0.770100000000     0.148700000000     0.076      
C        C      0.434280000000     0.732333333333     0.088500000000     0.076      
C        C      0.458160000000     0.756933333333     0.118050000000     0.076      
C        C      0.575660000000     0.745866666667     0.117500000000     0.076      
C        C      0.439980000000     0.775666666667     0.148550000000     0.076      
C        C      0.575720000000     0.791800000000     0.180350000000     0.076      
C        C      0.453860000000     0.710900000000     0.054850000000     0.076      
C        C      0.502380000000     0.936766666667     0.101300000000     0.076      
C        C      0.465720000000     0.899000000000     0.161500000000     0.076      
C        C      0.441840000000     0.923600000000     0.131950000000     0.076      
C        C      0.524340000000     0.912533333333     0.132500000000     0.076      
C        C      0.460020000000     0.942333333333     0.101450000000     0.076      
C        C      0.524280000000     0.958466666667     0.069650000000     0.076      
C        C      0.446140000000     0.877566666667     0.195150000000     0.076      
C        C      0.402380000000     0.896566666667     0.851300000000     0.076      
C        C      0.565720000000     0.934333333333     0.911500000000     0.076      
C        C      0.541840000000     0.909733333333     0.881950000000     0.076      
C        C      0.424340000000     0.920800000000     0.882500000000     0.076      
C        C      0.560020000000     0.891000000000     0.851450000000     0.076      
C        C      0.424280000000     0.874866666667     0.819650000000     0.076      
C        C      0.546140000000     0.955766666667     0.945150000000     0.076      
C        C      0.497620000000     0.729900000000     0.898700000000     0.076      
C        C      0.534280000000     0.767666666667     0.838500000000     0.076      
C        C      0.558160000000     0.743066666667     0.868050000000     0.076      
C        C      0.475660000000     0.754133333333     0.867500000000     0.076      
C        C      0.539980000000     0.724333333333     0.898550000000     0.076      
C        C      0.475720000000     0.708200000000     0.930350000000     0.076      
C        C      0.553860000000     0.789100000000     0.804850000000     0.076      
C        C      0.597620000000     0.770100000000     0.648700000000     0.076      
C        C      0.434280000000     0.732333333333     0.588500000000     0.076      
C        C      0.458160000000     0.756933333333     0.618050000000     0.076      
C        C      0.575660000000     0.745866666667     0.617500000000     0.076      
C        C      0.439980000000     0.775666666667     0.648550000000     0.076      
C        C      0.575720000000     0.791800000000     0.680350000000     0.076      
C        C      0.453860000000     0.710900000000     0.554850000000     0.076      
C        C      0.502380000000     0.936766666667     0.601300000000     0.076      
C        C      0.465720000000     0.899000000000     0.661500000000     0.076      
C        C      0.441840000000     0.923600000000     0.631950000000     0.076      
C        C      0.524340000000     0.912533333333     0.632500000000     0.076      
C        C      0.460020000000     0.942333333333     0.601450000000     0.076      
C        C      0.524280000000     0.958466666667     0.569650000000     0.076      
C        C      0.446140000000     0.877566666667     0.695150000000     0.076      
C        C      0.602380000000     0.229900000000     0.351300000000     0.076      
C        C      0.765720000000     0.267666666667     0.411500000000     0.076      
C        C      0.741840000000     0.243066666667     0.381950000000     0.076      
C        C      0.624340000000     0.254133333333     0.382500000000     0.076      
C        C      0.760020000000     0.224333333333     0.351450000000     0.076      
C        C      0.624280000000     0.208200000000     0.319650000000     0.076      
C        C      0.746140000000     0.289100000000     0.445150000000     0.076      
C        C      0.697620000000     0.063233333333     0.398700000000     0.076      
C        C      0.734280000000     0.101000000000     0.338500000000     0.076      
C        C      0.758160000000     0.076400000000     0.368050000000     0.076      
C        C      0.675660000000     0.087466666667     0.367500000000     0.076      
C        C      0.739980000000     0.057666666667     0.398550000000     0.076      
C        C      0.675720000000     0.041533333333     0.430350000000     0.076      
C        C      0.753860000000     0.122433333333     0.304850000000     0.076      
C        C      0.797620000000     0.103433333333     0.148700000000     0.076      
C        C      0.634280000000     0.065666666667     0.088500000000     0.076      
C        C      0.658160000000     0.090266666667     0.118050000000     0.076      
C        C      0.775660000000     0.079200000000     0.117500000000     0.076      
C        C      0.639980000000     0.109000000000     0.148550000000     0.076      
C        C      0.775720000000     0.125133333333     0.180350000000     0.076      
C        C      0.653860000000     0.044233333333     0.054850000000     0.076      
C        C      0.702380000000     0.270100000000     0.101300000000     0.076      
C        C      0.665720000000     0.232333333333     0.161500000000     0.076      
C        C      0.641840000000     0.256933333333     0.131950000000     0.076      
C        C      0.724340000000     0.245866666667     0.132500000000     0.076      
C        C      0.660020000000     0.275666666667     0.101450000000     0.076      
C        C      0.724280000000     0.291800000000     0.069650000000     0.076      
C        C      0.646140000000     0.210900000000     0.195150000000     0.076      
C        C      0.602380000000     0.229900000000     0.851300000000     0.076      
C        C      0.765720000000     0.267666666667     0.911500000000     0.076      
C        C      0.741840000000     0.243066666667     0.881950000000     0.076      
C        C      0.624340000000     0.254133333333     0.882500000000     0.076      
C        C      0.760020000000     0.224333333333     0.851450000000     0.076      
C        C      0.624280000000     0.208200000000     0.819650000000     0.076      
C        C      0.746140000000     0.289100000000     0.945150000000     0.076      
C        C      0.697620000000     0.063233333333     0.898700000000     0.076      
C        C      0.734280000000     0.101000000000     0.838500000000     0.076      
C        C      0.758160000000     0.076400000000     0.868050000000     0.076      
C        C      0.675660000000     0.087466666667     0.867500000000     0.076      
C        C      0.739980000000     0.057666666667     0.898550000000     0.076      
C        C      0.675720000000     0.041533333333     0.930350000000     0.076      
C        C      0.753860000000     0.122433333333     0.804850000000     0.076      
C        C      0.797620000000     0.103433333333     0.648700000000     0.076      
C        C      0.634280000000     0.065666666667     0.588500000000     0.076      
C        C      0.658160000000     0.090266666667     0.618050000000     0.076      
C        C      0.775660000000     0.079200000000     0.617500000000     0.076      
C        C      0.639980000000     0.109000000000     0.648550000000     0.076      
C        C      0.775720000000     0.125133333333     0.680350000000     0.076      
C        C      0.653860000000     0.044233333333     0.554850000000     0.076      
C        C      0.702380000000     0.270100000000     0.601300000000     0.076      
C        C      0.665720000000     0.232333333333     0.661500000000     0.076      
C        C      0.641840000000     0.256933333333     0.631950000000     0.076      
C        C      0.724340000000     0.245866666667     0.632500000000     0.076      
C        C      0.660020000000     0.275666666667     0.601450000000     0.076      
C        C      0.724280000000     0.291800000000     0.569650000000     0.076      
C        C      0.646140000000     0.210900000000     0.695150000000     0.076      
C        C      0.602380000000     0.563233333333     0.351300000000     0.076      
C        C      0.765720000000     0.601000000000     0.411500000000     0.076      
C        C      0.741840000000     0.576400000000     0.381950000000     0.076      
C        C      0.624340000000     0.587466666667     0.382500000000     0.076      
C        C      0.760020000000     0.557666666667     0.351450000000     0.076      
C        C      0.624280000000     0.541533333333     0.319650000000     0.076      
C        C      0.746140000000     0.622433333333     0.445150000000     0.076      
C        C      0.697620000000     0.396566666667     0.398700000000     0.076      
C        C      0.734280000000     0.434333333333     0.338500000000     0.076      
C        C      0.758160000000     0.409733333333     0.368050000000     0.076      
C        C      0.675660000000     0.420800000000     0.367500000000     0.076      
C        C      0.739980000000     0.391000000000     0.398550000000     0.076      
C        C      0.675720000000     0.374866666667     0.430350000000     0.076      
C        C      0.753860000000     0.455766666667     0.304850000000     0.076      
C        C      0.797620000000     0.436766666667     0.148700000000     0.076      
C        C      0.634280000000     0.399000000000     0.088500000000     0.076      
C        C      0.658160000000     0.423600000000     0.118050000000     0.076      
C        C      0.775660000000     0.412533333333     0.117500000000     0.076      
C        C      0.639980000000     0.442333333333     0.148550000000     0.076      
C        C      0.775720000000     0.458466666667     0.180350000000     0.076      
C        C      0.653860000000     0.377566666667     0.054850000000     0.076      
C        C      0.702380000000     0.603433333333     0.101300000000     0.076      
C        C      0.665720000000     0.565666666667     0.161500000000     0.076      
C        C      0.641840000000     0.590266666667     0.131950000000     0.076      
C        C      0.724340000000     0.579200000000     0.132500000000     0.076      
C        C      0.660020000000     0.609000000000     0.101450000000     0.076      
C        C      0.724280000000     0.625133333333     0.069650000000     0.076      
C        C      0.646140000000     0.544233333333     0.195150000000     0.076      
C        C      0.602380000000     0.563233333333     0.851300000000     0.076      
C        C      0.765720000000     0.601000000000     0.911500000000     0.076      
C        C      0.741840000000     0.576400000000     0.881950000000     0.076      
C        C      0.624340000000     0.587466666667     0.882500000000     0.076      
C        C      0.760020000000     0.557666666667     0.851450000000     0.076      
C        C      0.624280000000     0.541533333333     0.819650000000     0.076      
C        C      0.746140000000     0.622433333333     0.945150000000     0.076      
C        C      0.697620000000     0.396566666667     0.898700000000     0.076      
C        C      0.734280000000     0.434333333333     0.838500000000     0.076      
C        C      0.758160000000     0.409733333333     0.868050000000     0.076      
C        C      0.675660000000     0.420800000000     0.867500000000     0.076      
C        C      0.739980000000     0.391000000000     0.898550000000     0.076      
C        C      0.675720000000     0.374866666667     0.930350000000     0.076      
C        C      0.753860000000     0.455766666667     0.804850000000     0.076      
C        C      0.797620000000     0.436766666667     0.648700000000     0.076      
C        C      0.634280000000     0.399000000000     0.588500000000     0.076      
C        C      0.658160000000     0.423600000000     0.618050000000     0.076      
C        C      0.775660000000     0.412533333333     0.617500000000     0.076      
C        C      0.639980000000     0.442333333333     0.648550000000     0.076      
C        C      0.775720000000     0.458466666667     0.680350000000     0.076      
C        C      0.653860000000     0.377566666667     0.554850000000     0.076      
C        C      0.702380000000     0.603433333333     0.601300000000     0.076      
C        C      0.665720000000     0.565666666667     0.661500000000     0.076      
C        C      0.641840000000     0.590266666667     0.631950000000     0.076      
C        C      0.724340000000     0.579200000000     0.632500000000     0.076      
C        C      0.660020000000     0.609000000000     0.601450000000     0.076      
C        C      0.724280000000     0.625133333333     0.569650000000     0.076      
C        C      0.646140000000     0.544233333333     0.695150000000     0.076      
C        C      0.602380000000     0.896566666667     0.351300000000     0.076      
C        C      0.765720000000     0.934333333333     0.411500000000     0.076      
C        C      0.741840000000     0.909733333333     0.381950000000     0.076      
C        C      0.624340000000     0.920800000000     0.382500000000     0.076      
C        C      0.760020000000     0.891000000000     0.351450000000     0.076      
C        C      0.624280000000     0.874866666667     0.319650000000     0.076      
C        C      0.746140000000     0.955766666667     0.445150000000     0.076      
C        C      0.697620000000     0.729900000000     0.398700000000     0.076      
C        C      0.734280000000     0.767666666667     0.338500000000     0.076      
C        C      0.758160000000     0.743066666667     0.368050000000     0.076      
C        C      0.675660000000     0.754133333333     0.367500000000     0.076      
C        C      0.739980000000     0.724333333333     0.398550000000     0.076      
C        C      0.675720000000     0.708200000000     0.430350000000     0.076      
C        C      0.753860000000     0.789100000000     0.304850000000     0.076      
C        C      0.797620000000     0.770100000000     0.148700000000     0.076      
C        C      0.634280000000     0.732333333333     0.088500000000     0.076      
C        C      0.658160000000     0.756933333333     0.118050000000     0.076      
C        C      0.775660000000     0.745866666667     0.117500000000     0.076      
C        C      0.639980000000     0.775666666667     0.148550000000     0.076      
C        C      0.775720000000     0.791800000000     0.180350000000     0.076      
C        C      0.653860000000     0.710900000000     0.054850000000     0.076      
C        C      0.702380000000     0.936766666667     0.101300000000     0.076      
C        C      0.665720000000     0.899000000000     0.161500000000     0.076      
C        C      0.641840000000     0.923600000000     0.131950000000     0.076      
C        C      0.724340000000     0.912533333333     0.132500000000     0.076      
C        C      0.660020000000     0.942333333333     0.101450000000     0.076      
C        C      0.724280000000     0.958466666667     0.069650000000     0.076      
C        C      0.646140000000     0.877566666667     0.195150000000     0.076      
C        C      0.602380000000     0.896566666667     0.851300000000     0.076      
C        C      0.765720000000     0.934333333333     0.911500000000     0.076      
C        C      0.741840000000     0.909733333333     0.881950000000     0.076      
C        C      0.624340000000     0.920800000000     0.882500000000     0.076      
C        C      0.760020000000     0.891000000000     0.851450000000     0.076      
C        C      0.624280000000     0.874866666667     0.819650000000     0.076      
C        C      0.746140000000     0.955766666667     0.945150000000     0.076      
C        C      0.697620000000     0.729900000000     0.898700000000     0.076      
C        C      0.734280000000     0.767666666667     0.838500000000     0.076      
C        C      0.758160000000     0.743066666667     0.868050000000     0.076      
C        C      0.675660000000     0.754133333333     0.867500000000     0.076      
C        C      0.739980000000     0.724333333333     0.898550000000     0.076      
C        C      0.675720000000     0.708200000000     0.930350000000     0.076      
C        C      0.753860000000     0.789100000000     0.804850000000     0.076      
C        C      0.797620000000     0.770100000000     0.648700000000     0.076      
C        C      0.634280000000     0.732333333333     0.588500000000     0.076      
C        C      0.658160000000     0.756933333333     0.618050000000     0.076      
C        C      0.775660000000     0.745866666667     0.617500000000     0.076      
C        C      0.639980000000     0.775666666667     0.648550000000     0.076      
C        C      0.775720000000     0.791800000000     0.680350000000     0.076      
C        C      0.653860000000     0.710900000000     0.554850000000     0.076      
C        C      0.702380000000     0.936766666667     0.601300000000     0.076      
C        C      0.665720000000     0.899000000000     0.661500000000     0.076      
C        C      0.641840000000     0.923600000000     0.631950000000     0.076      
C        C      0.724340000000     0.912533333333     0.632500000000     0.076      
C        C      0.660020000000     0.942333333333     0.601450000000     0.076      
C        C      0.724280000000     0.958466666667     0.569650000000     0.076      
C        C      0.646140000000     0.877566666667     0.695150000000     0.076      
C        C      0.802380000000     0.229900000000     0.351300000000     0.076      
C        C      0.965720000000     0.267666666667     0.411500000000     0.076      
C        C      0.941840000000     0.243066666667     0.381950000000     0.076      
C        C      0.824340000000     0.254133333333     0.382500000000     0.076      
C        C      0.960020000000     0.224333333333     0.351450000000     0.076      
C        C      0.824280000000     0.208200000000     0.319650000000     0.076      
C        C      0.946140000000     0.289100000000     0.445150000000     0.076      
C        C      0.897620000000     0.063233333333     0.398700000000     0.076      
C        C      0.934280000000     0.101000000000     0.338500000000     0.076      
C        C      0.958160000000     0.076400000000     0.368050000000     0.076      
C        C      0.875660000000     0.087466666667     0.367500000000     0.076      
C        C      0.939980000000     0.057666666667     0.398550000000     0.076      
C        C      0.875720000000     0.041533333333     0.430350000000     0.076      
C        C      0.953860000000     0.122433333333     0.304850000000     0.076      
C        C      0.997620000000     0.103433333333     0.148700000000     0.076      
C        C      0.834280000000     0.065666666667     0.088500000000     0.076      
C        C      0.858160000000     0.090266666667     0.118050000000     0.076      
C        C      0.975660000000     0.079200000000     0.117500000000     0.076      
C        C      0.839980000000     0.109000000000     0.148550000000     0.076      
C        C      0.975720000000     0.125133333333     0.180350000000     0.076      
C        C      0.853860000000     0.044233333333     0.054850000000     0.076      
C        C      0.902380000000     0.270100000000     0.101300000000     0.076      
C        C      0.865720000000     0.232333333333     0.161500000000     0.076      
C        C      0.841840000000     0.256933333333     0.131950000000     0.076      
C        C      0.924340000000     0.245866666667     0.132500000000     0.076      
C        C      0.860020000000     0.275666666667     0.101450000000     0.076      
C        C      0.924280000000     0.291800000000     0.069650000000     0.076      
C        C      0.846140000000     0.210900000000     0.195150000000     0.076      
C        C      0.802380000000     0.229900000000     0.851300000000     0.076      
C        C      0.965720000000     0.267666666667     0.911500000000     0.076      
C        C      0.941840000000     0.243066666667     0.881950000000     0.076      
C        C      0.824340000000     0.254133333333     0.882500000000     0.076      
C        C      0.960020000000     0.224333333333     0.851450000000     0.076      
C        C      0.824280000000     0.208200000000     0.819650000000     0.076      
C        C      0.946140000000     0.289100000000     0.945150000000     0.076      
C        C      0.897620000000     0.063233333333     0.898700000000     0.076      
C        C      0.934280000000     0.101000000000     0.838500000000     0.076      
C        C      0.958160000000     0.076400000000     0.868050000000     0.076      
C        C      0.875660000000     0.087466666667     0.867500000000     0.076      
C        C      0.939980000000     0.057666666667     0.898550000000     0.076      
C        C      0.875720000000     0.041533333333     0.930350000000     0.076      
C        C      0.953860000000     0.122433333333     0.804850000000     0.076      
C        C      0.997620000000     0.103433333333     0.648700000000     0.076      
C        C      0.834280000000     0.065666666667     0.588500000000     0.076      
C        C      0.858160000000     0.090266666667     0.618050000000     0.076      
C        C      0.975660000000     0.079200000000     0.617500000000     0.076      
C        C      0.839980000000     0.109000000000     0.648550000000     0.076      
C        C      0.975720000000     0.125133333333     0.680350000000     0.076      
C        C      0.853860000000     0.044233333333     0.554850000000     0.076      
C        C      0.902380000000     0.270100000000     0.601300000000     0.076      
C        C      0.865720000000     0.232333333333     0.661500000000     0.076      
C        C      0.841840000000     0.256933333333     0.631950000000     0.076      
C        C      0.924340000000     0.245866666667     0.632500000000     0.076      
C        C      0.860020000000     0.275666666667     0.601450000000     0.076      
C        C      0.924280000000     0.291800000000     0.569650000000     0.076      
C        C      0.846140000000     0.210900000000     0.695150000000     0.076      
C        C      0.802380000000     0.563233333333     0.351300000000     0.076      
C        C      0.965720000000     0.601000000000     0.411500000000     0.076      
C        C      0.941840000000     0.576400000000     0.381950000000     0.076      
C        C      0.824340000000     0.587466666667     0.382500000000     0.076      
C        C      0.960020000000     0.557666666667     0.351450000000     0.076      
C        C      0.824280000000     0.541533333333     0.319650000000     0.076      
C        C      0.946140000000     0.622433333333     0.445150000000     0.076      
C        C      0.897620000000     0.396566666667     0.398700000000     0.076      
C        C      0.934280000000     0.434333333333     0.338500000000     0.076      
C        C      0.958160000000     0.409733333333     0.368050000000     0.076      
C        C      0.875660000000     0.420800000000     0.367500000000     0.076      
C        C      0.939980000000     0.391000000000     0.398550000000     0.076      
C        C      0.875720000000     0.374866666667     0.430350000000     0.076      
C        C      0.953860000000     0.455766666667     0.304850000000     0.076      
C        C      0.997620000000     0.436766666667     0.148700000000     0.076      
C        C      0.834280000000     0.399000000000     0.088500000000     0.076      
C        C      0.858160000000     0.423600000000     0.118050000000     0.076      
C        C      0.975660000000     0.412533333333     0.117500000000     0.076      
C        C      0.839980000000     0.442333333333     0.148550000000     0.076      
C        C      0.975720000000     0.458466666667     0.180350000000     0.076      
C        C      0.853860000000     0.377566666667     0.054850000000     0.076      
C        C      0.902380000000     0.603433333333     0.101300000000     0.076      
C        C      0.865720000000     0.565666666667     0.161500000000     0.076      
C        C      0.841840000000     0.590266666667     0.131950000000     0.076      
C        C      0.924340000000     0.579200000000     0.132500000000     0.076      
C        C      0.860020000000     0.609000000000     0.101450000000     0.076      
C        C      0.924280000000     0.625133333333     0.069650000000     0.076      
C        C      0.846140000000     0.544233333333     0.195150000000     0.076      
C        C      0.802380000000     0.563233333333     0.851300000000     0.076      
C        C      0.965720000000     0.601000000000     0.911500000000     0.076      
C        C      0.941840000000     0.576400000000     0.881950000000     0.076      
C        C      0.824340000000     0.587466666667     0.882500000000     0.076      
C        C      0.960020000000     0.557666666667     0.851450000000     0.076      
C        C      0.824280000000     0.541533333333     0.819650000000     0.076      
C        C      0.946140000000     0.622433333333     0.945150000000     0.076      
C        C      0.897620000000     0.396566666667     0.898700000000     0.076      
C        C      0.934280000000     0.434333333333     0.838500000000     0.076      
C        C      0.958160000000     0.409733333333     0.868050000000     0.076      
C        C      0.875660000000     0.420800000000     0.867500000000     0.076      
C        C      0.939980000000     0.391000000000     0.898550000000     0.076      
C        C      0.875720000000     0.374866666667     0.930350000000     0.076      
C        C      0.953860000000     0.455766666667     0.804850000000     0.076      
C        C      0.997620000000     0.436766666667     0.648700000000     0.076      
C        C      0.834280000000     0.399000000000     0.588500000000     0.076      
C        C      0.858160000000     0.423600000000     0.618050000000     0.076      
C        C      0.975660000000     0.412533333333     0.617500000000     0.076      
C        C      0.839980000000     0.442333333333     0.648550000000     0.076      
C        C      0.975720000000     0.458466666667     0.680350000000     0.076      
C        C      0.853860000000     0.377566666667     0.554850000000     0.076      
C        C      0.902380000000     0.603433333333     0.601300000000     0.076      
C        C      0.865720000000     0.565666666667     0.661500000000     0.076      
C        C      0.841840000000     0.590266666667     0.631950000000     0.076      
C        C      0.924340000000     0.579200000000     0.632500000000     0.076      
C        C      0.860020000000     0.609000000000     0.601450000000     0.076      
C        C      0.924280000000     0.625133333333     0.569650000000     0.076      
C        C      0.846140000000     0.544233333333     0.695150000000     0.076      
C        C      0.802380000000     0.896566666667     0.351300000000     0.076      
C        C      0.965720000000     0.934333333333     0.411500000000     0.076      
C        C      0.941840000000     0.909733333333     0.381950000000     0.076      
C        C      0.824340000000     0.920800000000     0.382500000000     0.076      
C        C      0.960020000000     0.891000000000     0.351450000000     0.076      
C        C      0.824280000000     0.874866666667     0.319650000000     0.076      
C        C      0.946140000000     0.955766666667     0.445150000000     0.076      
C        C      0.897620000000     0.729900000000     0.398700000000     0.076      
C        C      0.934280000000     0.767666666667     0.338500000000     0.076      
C        C      0.958160000000     0.743066666667     0.368050000000     0.076      
C        C      0.875660000000     0.754133333333     0.367500000000     0.076      
C        C      0.939980000000     0.724333333333     0.398550000000     0.076      
C        C      0.875720000000     0.708200000000     0.430350000000     0.076      
C        C      0.953860000000     0.789100000000     0.304850000000     0.076      
C        C      0.997620000000     0.770100000000     0.148700000000     0.076      
C        C      0.834280000000     0.732333333333     0.088500000000     0.076      
C        C      0.858160000000     0.756933333333     0.118050000000     0.076      
C        C      0.975660000000     0.745866666667     0.117500000000     0.076      
C        C      0.839980000000     0.775666666667     0.148550000000     0.076      
C        C      0.975720000000     0.791800000000     0.180350000000     0.076      
C        C      0.853860000000     0.710900000000     0.054850000000     0.076      
C        C      0.902380000000     0.936766666667     0.101300000000     0.076      
C        C      0.865720000000     0.899000000000     0.161500000000     0.076      
C        C      0.841840000000     0.923600000000     0.131950000000     0.076      
C        C      0.924340000000     0.912533333333     0.132500000000     0.076      
C        C      0.860020000000     0.942333333333     0.101450000000     0.076      
C        C      0.924280000000     0.958466666667     0.069650000000     0.076      
C        C      0.846140000000     0.877566666667     0.195150000000     0.076      
C        C      0.802380000000     0.896566666667     0.851300000000     0.076      
C        C      0.965720000000     0.934333333333     0.911500000000     0.076      
C        C      0.941840000000     0.909733333333     0.881950000000     0.076      
C        C      0.824340000000     0.920800000000     0.882500000000     0.076      
C        C      0.960020000000     0.891000000000     0.851450000000     0.076      
C        C      0.824280000000     0.874866666667     0.819650000000     0.076      
C        C      0.946140000000     0.955766666667     0.945150000000     0.076      
C        C      0.897620000000     0.729900000000     0.898700000000     0.076      
C        C      0.934280000000     0.767666666667     0.838500000000     0.076      
C        C      0.958160000000     0.743066666667     0.868050000000     0.076      
C        C      0.875660000000     0.754133333333     0.867500000000     0.076      
C        C      0.939980000000     0.724333333333     0.898550000000     0.076      
C        C      0.875720000000     0.708200000000     0.930350000000     0.076      
C        C      0.953860000000     0.789100000000     0.804850000000     0.076      
C        C      0.997620000000     0.770100000000     0.648700000000     0.076      
C        C      0.834280000000     0.732333333333     0.588500000000     0.076      
C        C      0.858160000000     0.756933333333     0.618050000000     0.076      
C        C      0.975660000000     0.745866666667     0.617500000000     0.076      
C        C      0.839980000000     0.775666666667     0.648550000000     0.076      
C        C      0.975720000000     0.791800000000     0.680350000000     0.076      
C        C      0.853860000000     0.710900000000     0.554850000000     0.076      
C        C      0.902380000000     0.936766666667     0.601300000000     0.076      
C        C      0.865720000000     0.899000000000     0.661500000000     0.076      
C        C      0.841840000000     0.923600000000     0.631950000000     0.076      
C        C      0.924340000000     0.912533333333     0.632500000000     0.076      
C        C      0.860020000000     0.942333333333     0.601450000000     0.076      
C        C      0.924280000000     0.958466666667     0.569650000000     0.076      
C        C      0.846140000000     0.877566666667     0.695150000000     0.076      
Ca       Ca     0.048594000000     0.309493333333     0.476115000000    -0.032      
Ca       Ca     0.051406000000     0.142826666667     0.273885000000    -0.032      
Ca       Ca     0.151406000000     0.023840000000     0.023885000000    -0.032      
Ca       Ca     0.148594000000     0.190506666667     0.226115000000    -0.032      
Ca       Ca     0.048594000000     0.309493333333     0.976115000000    -0.032      
Ca       Ca     0.051406000000     0.142826666667     0.773885000000    -0.032      
Ca       Ca     0.151406000000     0.023840000000     0.523885000000    -0.032      
Ca       Ca     0.148594000000     0.190506666667     0.726115000000    -0.032      
Ca       Ca     0.048594000000     0.642826666667     0.476115000000    -0.032      
Ca       Ca     0.051406000000     0.476160000000     0.273885000000    -0.032      
Ca       Ca     0.151406000000     0.357173333333     0.023885000000    -0.032      
Ca       Ca     0.148594000000     0.523840000000     0.226115000000    -0.032      
Ca       Ca     0.048594000000     0.642826666667     0.976115000000    -0.032      
Ca       Ca     0.051406000000     0.476160000000     0.773885000000    -0.032      
Ca       Ca     0.151406000000     0.357173333333     0.523885000000    -0.032      
Ca       Ca     0.148594000000     0.523840000000     0.726115000000    -0.032      
Ca       Ca     0.048594000000     0.976160000000     0.476115000000    -0.032      
Ca       Ca     0.051406000000     0.809493333333     0.273885000000    -0.032      
Ca       Ca     0.151406000000     0.690506666667     0.023885000000    -0.032      
Ca       Ca     0.148594000000     0.857173333333     0.226115000000    -0.032      
Ca       Ca     0.048594000000     0.976160000000     0.976115000000    -0.032      
Ca       Ca     0.051406000000     0.809493333333     0.773885000000    -0.032      
Ca       Ca     0.151406000000     0.690506666667     0.523885000000    -0.032      
Ca       Ca     0.148594000000     0.857173333333     0.726115000000    -0.032      
Ca       Ca     0.248594000000     0.309493333333     0.476115000000    -0.032      
Ca       Ca     0.251406000000     0.142826666667     0.273885000000    -0.032      
Ca       Ca     0.351406000000     0.023840000000     0.023885000000    -0.032      
Ca       Ca     0.348594000000     0.190506666667     0.226115000000    -0.032      
Ca       Ca     0.248594000000     0.309493333333     0.976115000000    -0.032      
Ca       Ca     0.251406000000     0.142826666667     0.773885000000    -0.032      
Ca       Ca     0.351406000000     0.023840000000     0.523885000000    -0.032      
Ca       Ca     0.348594000000     0.190506666667     0.726115000000    -0.032      
Ca       Ca     0.248594000000     0.642826666667     0.476115000000    -0.032      
Ca       Ca     0.251406000000     0.476160000000     0.273885000000    -0.032      
Ca       Ca     0.351406000000     0.357173333333     0.023885000000    -0.032      
Ca       Ca     0.348594000000     0.523840000000     0.226115000000    -0.032      
Ca       Ca     0.248594000000     0.642826666667     0.976115000000    -0.032      
Ca       Ca     0.251406000000     0.476160000000     0.773885000000    -0.032      
Ca       Ca     0.351406000000     0.357173333333     0.523885000000    -0.032      
Ca       Ca     0.348594000000     0.523840000000     0.726115000000    -0.032      
Ca       Ca     0.248594000000     0.976160000000     0.476115000000    -0.032      
Ca       Ca     0.251406000000     0.809493333333     0.273885000000    -0.032      
Ca       Ca     0.351406000000     0.690506666667     0.023885000000    -0.032      
Ca       Ca     0.348594000000     0.857173333333     0.226115000000    -0.032      
Ca       Ca     0.248594000000     0.976160000000     0.976115000000    -0.032      
Ca       Ca     0.251406000000     0.809493333333     0.773885000000    -0.032      
Ca       Ca     0.351406000000     0.690506666667     0.523885000000    -0.032      
Ca       Ca     0.348594000000     0.857173333333     0.726115000000    -0.032      
Ca       Ca     0.448594000000     0.309493333333     0.476115000000    -0.032      
Ca       Ca     0.451406000000     0.142826666667     0.273885000000    -0.032      
Ca       Ca     0.551406000000     0.023840000000     0.023885000000    -0.032      
Ca       Ca     0.548594000000     0.190506666667     0.226115000000    -0.032      
Ca       Ca     0.448594000000     0.309493333333     0.976115000000    -0.032      
Ca       Ca     0.451406000000     0.142826666667     0.773885000000    -0.032      
Ca       Ca     0.551406000000     0.023840000000     0.523885000000    -0.032      
Ca       Ca     0.548594000000     0.190506666667     0.726115000000    -0.032      
Ca       Ca     0.448594000000     0.642826666667     0.476115000000    -0.032      
Ca       Ca     0.451406000000     0.476160000000     0.273885000000    -0.032      
Ca       Ca     0.551406000000     0.357173333333     0.023885000000    -0.032      
Ca       Ca     0.548594000000     0.523840000000     0.226115000000    -0.032      
Ca       Ca     0.448594000000     0.642826666667     0.976115000000    -0.032      
Ca       Ca     0.451406000000     0.476160000000     0.773885000000    -0.032      
Ca       Ca     0.551406000000     0.357173333333     0.523885000000    -0.032      
Ca       Ca     0.548594000000     0.523840000000     0.726115000000    -0.032      
Ca       Ca     0.448594000000     0.976160000000     0.476115000000    -0.032      
Ca       Ca     0.451406000000     0.809493333333     0.273885000000    -0.032      
Ca       Ca     0.551406000000     0.690506666667     0.023885000000    -0.032      
Ca       Ca     0.548594000000     0.857173333333     0.226115000000    -0.032      
Ca       Ca     0.448594000000     0.976160000000     0.976115000000    -0.032      
Ca       Ca     0.451406000000     0.809493333333     0.773885000000    -0.032      
Ca       Ca     0.551406000000     0.690506666667     0.523885000000    -0.032      
Ca       Ca     0.548594000000     0.857173333333     0.726115000000    -0.032      
Ca       Ca     0.648594000000     0.309493333333     0.476115000000    -0.032      
Ca       Ca     0.651406000000     0.142826666667     0.273885000000    -0.032      
Ca       Ca     0.751406000000     0.023840000000     0.023885000000    -0.032      
Ca       Ca     0.748594000000     0.190506666667     0.226115000000    -0.032      
Ca       Ca     0.648594000000     0.309493333333     0.976115000000    -0.032      
Ca       Ca     0.651406000000     0.142826666667     0.773885000000    -0.032      
Ca       Ca     0.751406000000     0.023840000000     0.523885000000    -0.032      
Ca       Ca     0.748594000000     0.190506666667     0.726115000000    -0.032      
Ca       Ca     0.648594000000     0.642826666667     0.476115000000    -0.032      
Ca       Ca     0.651406000000     0.476160000000     0.273885000000    -0.032      
Ca       Ca     0.751406000000     0.357173333333     0.023885000000    -0.032      
Ca       Ca     0.748594000000     0.523840000000     0.226115000000    -0.032      
Ca       Ca     0.648594000000     0.642826666667     0.976115000000    -0.032      
Ca       Ca     0.651406000000     0.476160000000     0.773885000000    -0.032      
Ca       Ca     0.751406000000     0.357173333333     0.523885000000    -0.032      
Ca       Ca     0.748594000000     0.523840000000     0.726115000000    -0.032      
Ca       Ca     0.648594000000     0.976160000000     0.476115000000    -0.032      
Ca       Ca     0.651406000000     0.809493333333     0.273885000000    -0.032      
Ca       Ca     0.751406000000     0.690506666667     0.023885000000    -0.032      
Ca       Ca     0.748594000000     0.857173333333     0.226115000000    -0.032      
Ca       Ca     0.648594000000     0.976160000000     0.976115000000    -0.032      
Ca       Ca     0.651406000000     0.809493333333     0.773885000000    -0.032      
Ca       Ca     0.751406000000     0.690506666667     0.523885000000    -0.032      
Ca       Ca     0.748594000000     0.857173333333     0.726115000000    -0.032      
Ca       Ca     0.848594000000     0.309493333333     0.476115000000    -0.032      
Ca       Ca     0.851406000000     0.142826666667     0.273885000000    -0.032      
Ca       Ca     0.951406000000     0.023840000000     0.023885000000    -0.032      
Ca       Ca     0.948594000000     0.190506666667     0.226115000000    -0.032      
Ca       Ca     0.848594000000     0.309493333333     0.976115000000    -0.032      
Ca       Ca     0.851406000000     0.142826666667     0.773885000000    -0.032      
Ca       Ca     0.951406000000     0.023840000000     0.523885000000    -0.032      
Ca       Ca     0.948594000000     0.190506666667     0.726115000000    -0.032      
Ca       Ca     0.848594000000     0.642826666667     0.476115000000    -0.032      
Ca       Ca     0.851406000000     0.476160000000     0.273885000000    -0.032      
Ca       Ca     0.951406000000     0.357173333333     0.023885000000    -0.032      
Ca       Ca     0.948594000000     0.523840000000     0.226115000000    -0.032      
Ca       Ca     0.848594000000     0.642826666667     0.976115000000    -0.032      
Ca       Ca     0.851406000000     0.476160000000     0.773885000000    -0.032      
Ca       Ca     0.951406000000     0.357173333333     0.523885000000    -0.032      
Ca       Ca     0.948594000000     0.523840000000     0.726115000000    -0.032      
Ca       Ca     0.848594000000     0.976160000000     0.476115000000    -0.032      
Ca       Ca     0.851406000000     0.809493333333     0.273885000000    -0.032      
Ca       Ca     0.951406000000     0.690506666667     0.023885000000    -0.032      
Ca       Ca     0.948594000000     0.857173333333     0.226115000000    -0.032      
Ca       Ca     0.848594000000     0.976160000000     0.976115000000    -0.032      
Ca       Ca     0.851406000000     0.809493333333     0.773885000000    -0.032      
Ca       Ca     0.951406000000     0.690506666667     0.523885000000    -0.032      
Ca       Ca     0.948594000000     0.857173333333     0.726115000000    -0.032      
H        H      0.113380000000     0.239200000000     0.382650000000    -0.085      
H        H      0.053080000000     0.257533333333     0.383100000000    -0.085      
H        H      0.143980000000     0.208100000000     0.331200000000    -0.085      
H        H      0.186620000000     0.072533333333     0.367350000000    -0.085      
H        H      0.046920000000     0.090866666667     0.366900000000    -0.085      
H        H      0.156020000000     0.041433333333     0.418800000000    -0.085      
H        H      0.086620000000     0.094133333333     0.117350000000    -0.085      
H        H      0.146920000000     0.075800000000     0.116900000000    -0.085      
H        H      0.056020000000     0.125233333333     0.168800000000    -0.085      
H        H      0.013380000000     0.260800000000     0.132650000000    -0.085      
H        H      0.153080000000     0.242466666667     0.133100000000    -0.085      
H        H      0.043980000000     0.291900000000     0.081200000000    -0.085      
H        H      0.113380000000     0.239200000000     0.882650000000    -0.085      
H        H      0.053080000000     0.257533333333     0.883100000000    -0.085      
H        H      0.143980000000     0.208100000000     0.831200000000    -0.085      
H        H      0.186620000000     0.072533333333     0.867350000000    -0.085      
H        H      0.046920000000     0.090866666667     0.866900000000    -0.085      
H        H      0.156020000000     0.041433333333     0.918800000000    -0.085      
H        H      0.086620000000     0.094133333333     0.617350000000    -0.085      
H        H      0.146920000000     0.075800000000     0.616900000000    -0.085      
H        H      0.056020000000     0.125233333333     0.668800000000    -0.085      
H        H      0.013380000000     0.260800000000     0.632650000000    -0.085      
H        H      0.153080000000     0.242466666667     0.633100000000    -0.085      
H        H      0.043980000000     0.291900000000     0.581200000000    -0.085      
H        H      0.113380000000     0.572533333333     0.382650000000    -0.085      
H        H      0.053080000000     0.590866666667     0.383100000000    -0.085      
H        H      0.143980000000     0.541433333333     0.331200000000    -0.085      
H        H      0.186620000000     0.405866666667     0.367350000000    -0.085      
H        H      0.046920000000     0.424200000000     0.366900000000    -0.085      
H        H      0.156020000000     0.374766666667     0.418800000000    -0.085      
H        H      0.086620000000     0.427466666667     0.117350000000    -0.085      
H        H      0.146920000000     0.409133333333     0.116900000000    -0.085      
H        H      0.056020000000     0.458566666667     0.168800000000    -0.085      
H        H      0.013380000000     0.594133333333     0.132650000000    -0.085      
H        H      0.153080000000     0.575800000000     0.133100000000    -0.085      
H        H      0.043980000000     0.625233333333     0.081200000000    -0.085      
H        H      0.113380000000     0.572533333333     0.882650000000    -0.085      
H        H      0.053080000000     0.590866666667     0.883100000000    -0.085      
H        H      0.143980000000     0.541433333333     0.831200000000    -0.085      
H        H      0.186620000000     0.405866666667     0.867350000000    -0.085      
H        H      0.046920000000     0.424200000000     0.866900000000    -0.085      
H        H      0.156020000000     0.374766666667     0.918800000000    -0.085      
H        H      0.086620000000     0.427466666667     0.617350000000    -0.085      
H        H      0.146920000000     0.409133333333     0.616900000000    -0.085      
H        H      0.056020000000     0.458566666667     0.668800000000    -0.085      
H        H      0.013380000000     0.594133333333     0.632650000000    -0.085      
H        H      0.153080000000     0.575800000000     0.633100000000    -0.085      
H        H      0.043980000000     0.625233333333     0.581200000000    -0.085      
H        H      0.113380000000     0.905866666667     0.382650000000    -0.085      
H        H      0.053080000000     0.924200000000     0.383100000000    -0.085      
H        H      0.143980000000     0.874766666667     0.331200000000    -0.085      
H        H      0.186620000000     0.739200000000     0.367350000000    -0.085      
H        H      0.046920000000     0.757533333333     0.366900000000    -0.085      
H        H      0.156020000000     0.708100000000     0.418800000000    -0.085      
H        H      0.086620000000     0.760800000000     0.117350000000    -0.085      
H        H      0.146920000000     0.742466666667     0.116900000000    -0.085      
H        H      0.056020000000     0.791900000000     0.168800000000    -0.085      
H        H      0.013380000000     0.927466666667     0.132650000000    -0.085      
H        H      0.153080000000     0.909133333333     0.133100000000    -0.085      
H        H      0.043980000000     0.958566666667     0.081200000000    -0.085      
H        H      0.113380000000     0.905866666667     0.882650000000    -0.085      
H        H      0.053080000000     0.924200000000     0.883100000000    -0.085      
H        H      0.143980000000     0.874766666667     0.831200000000    -0.085      
H        H      0.186620000000     0.739200000000     0.867350000000    -0.085      
H        H      0.046920000000     0.757533333333     0.866900000000    -0.085      
H        H      0.156020000000     0.708100000000     0.918800000000    -0.085      
H        H      0.086620000000     0.760800000000     0.617350000000    -0.085      
H        H      0.146920000000     0.742466666667     0.616900000000    -0.085      
H        H      0.056020000000     0.791900000000     0.668800000000    -0.085      
H        H      0.013380000000     0.927466666667     0.632650000000    -0.085      
H        H      0.153080000000     0.909133333333     0.633100000000    -0.085      
H        H      0.043980000000     0.958566666667     0.581200000000    -0.085      
H        H      0.313380000000     0.239200000000     0.382650000000    -0.085      
H        H      0.253080000000     0.257533333333     0.383100000000    -0.085      
H        H      0.343980000000     0.208100000000     0.331200000000    -0.085      
H        H      0.386620000000     0.072533333333     0.367350000000    -0.085      
H        H      0.246920000000     0.090866666667     0.366900000000    -0.085      
H        H      0.356020000000     0.041433333333     0.418800000000    -0.085      
H        H      0.286620000000     0.094133333333     0.117350000000    -0.085      
H        H      0.346920000000     0.075800000000     0.116900000000    -0.085      
H        H      0.256020000000     0.125233333333     0.168800000000    -0.085      
H        H      0.213380000000     0.260800000000     0.132650000000    -0.085      
H        H      0.353080000000     0.242466666667     0.133100000000    -0.085      
H        H      0.243980000000     0.291900000000     0.081200000000    -0.085      
H        H      0.313380000000     0.239200000000     0.882650000000    -0.085      
H        H      0.253080000000     0.257533333333     0.883100000000    -0.085      
H        H      0.343980000000     0.208100000000     0.831200000000    -0.085      
H        H      0.386620000000     0.072533333333     0.867350000000    -0.085      
H        H      0.246920000000     0.090866666667     0.866900000000    -0.085      
H        H      0.356020000000     0.041433333333     0.918800000000    -0.085      
H        H      0.286620000000     0.094133333333     0.617350000000    -0.085      
H        H      0.346920000000     0.075800000000     0.616900000000    -0.085      
H        H      0.256020000000     0.125233333333     0.668800000000    -0.085      
H        H      0.213380000000     0.260800000000     0.632650000000    -0.085      
H        H      0.353080000000     0.242466666667     0.633100000000    -0.085      
H        H      0.243980000000     0.291900000000     0.581200000000    -0.085      
H        H      0.313380000000     0.572533333333     0.382650000000    -0.085      
H        H      0.253080000000     0.590866666667     0.383100000000    -0.085      
H        H      0.343980000000     0.541433333333     0.331200000000    -0.085      
H        H      0.386620000000     0.405866666667     0.367350000000    -0.085      
H        H      0.246920000000     0.424200000000     0.366900000000    -0.085      
H        H      0.356020000000     0.374766666667     0.418800000000    -0.085      
H        H      0.286620000000     0.427466666667     0.117350000000    -0.085      
H        H      0.346920000000     0.409133333333     0.116900000000    -0.085      
H        H      0.256020000000     0.458566666667     0.168800000000    -0.085      
H        H      0.213380000000     0.594133333333     0.132650000000    -0.085      
H        H      0.353080000000     0.575800000000     0.133100000000    -0.085      
H        H      0.243980000000     0.625233333333     0.081200000000    -0.085      
H        H      0.313380000000     0.572533333333     0.882650000000    -0.085      
H        H      0.253080000000     0.590866666667     0.883100000000    -0.085      
H        H      0.343980000000     0.541433333333     0.831200000000    -0.085      
H        H      0.386620000000     0.405866666667     0.867350000000    -0.085      
H        H      0.246920000000     0.424200000000     0.866900000000    -0.085      
H        H      0.356020000000     0.374766666667     0.918800000000    -0.085      
H        H      0.286620000000     0.427466666667     0.617350000000    -0.085      
H        H      0.346920000000     0.409133333333     0.616900000000    -0.085      
H        H      0.256020000000     0.458566666667     0.668800000000    -0.085      
H        H      0.213380000000     0.594133333333     0.632650000000    -0.085      
H        H      0.353080000000     0.575800000000     0.633100000000    -0.085      
H        H      0.243980000000     0.625233333333     0.581200000000    -0.085      
H        H      0.313380000000     0.905866666667     0.382650000000    -0.085      
H        H      0.253080000000     0.924200000000     0.383100000000    -0.085      
H        H      0.343980000000     0.874766666667     0.331200000000    -0.085      
H        H      0.386620000000     0.739200000000     0.367350000000    -0.085      
H        H      0.246920000000     0.757533333333     0.366900000000    -0.085      
H        H      0.356020000000     0.708100000000     0.418800000000    -0.085      
H        H      0.286620000000     0.760800000000     0.117350000000    -0.085      
H        H      0.346920000000     0.742466666667     0.116900000000    -0.085      
H        H      0.256020000000     0.791900000000     0.168800000000    -0.085      
H        H      0.213380000000     0.927466666667     0.132650000000    -0.085      
H        H      0.353080000000     0.909133333333     0.133100000000    -0.085      
H        H      0.243980000000     0.958566666667     0.081200000000    -0.085      
H        H      0.313380000000     0.905866666667     0.882650000000    -0.085      
H        H      0.253080000000     0.924200000000     0.883100000000    -0.085      
H        H      0.343980000000     0.874766666667     0.831200000000    -0.085      
H        H      0.386620000000     0.739200000000     0.867350000000    -0.085      
H        H      0.246920000000     0.757533333333     0.866900000000    -0.085      
H        H      0.356020000000     0.708100000000     0.918800000000    -0.085      
H        H      0.286620000000     0.760800000000     0.617350000000    -0.085      
H        H      0.346920000000     0.742466666667     0.616900000000    -0.085      
H        H      0.256020000000     0.791900000000     0.668800000000    -0.085      
H        H      0.213380000000     0.927466666667     0.632650000000    -0.085      
H        H      0.353080000000     0.909133333333     0.633100000000    -0.085      
H        H      0.243980000000     0.958566666667     0.581200000000    -0.085      
H        H      0.513380000000     0.239200000000     0.382650000000    -0.085      
H        H      0.453080000000     0.257533333333     0.383100000000    -0.085      
H        H      0.543980000000     0.208100000000     0.331200000000    -0.085      
H        H      0.586620000000     0.072533333333     0.367350000000    -0.085      
H        H      0.446920000000     0.090866666667     0.366900000000    -0.085      
H        H      0.556020000000     0.041433333333     0.418800000000    -0.085      
H        H      0.486620000000     0.094133333333     0.117350000000    -0.085      
H        H      0.546920000000     0.075800000000     0.116900000000    -0.085      
H        H      0.456020000000     0.125233333333     0.168800000000    -0.085      
H        H      0.413380000000     0.260800000000     0.132650000000    -0.085      
H        H      0.553080000000     0.242466666667     0.133100000000    -0.085      
H        H      0.443980000000     0.291900000000     0.081200000000    -0.085      
H        H      0.513380000000     0.239200000000     0.882650000000    -0.085      
H        H      0.453080000000     0.257533333333     0.883100000000    -0.085      
H        H      0.543980000000     0.208100000000     0.831200000000    -0.085      
H        H      0.586620000000     0.072533333333     0.867350000000    -0.085      
H        H      0.446920000000     0.090866666667     0.866900000000    -0.085      
H        H      0.556020000000     0.041433333333     0.918800000000    -0.085      
H        H      0.486620000000     0.094133333333     0.617350000000    -0.085      
H        H      0.546920000000     0.075800000000     0.616900000000    -0.085      
H        H      0.456020000000     0.125233333333     0.668800000000    -0.085      
H        H      0.413380000000     0.260800000000     0.632650000000    -0.085      
H        H      0.553080000000     0.242466666667     0.633100000000    -0.085      
H        H      0.443980000000     0.291900000000     0.581200000000    -0.085      
H        H      0.513380000000     0.572533333333     0.382650000000    -0.085      
H        H      0.453080000000     0.590866666667     0.383100000000    -0.085      
H        H      0.543980000000     0.541433333333     0.331200000000    -0.085      
H        H      0.586620000000     0.405866666667     0.367350000000    -0.085      
H        H      0.446920000000     0.424200000000     0.366900000000    -0.085      
H        H      0.556020000000     0.374766666667     0.418800000000    -0.085      
H        H      0.486620000000     0.427466666667     0.117350000000    -0.085      
H        H      0.546920000000     0.409133333333     0.116900000000    -0.085      
H        H      0.456020000000     0.458566666667     0.168800000000    -0.085      
H        H      0.413380000000     0.594133333333     0.132650000000    -0.085      
H        H      0.553080000000     0.575800000000     0.133100000000    -0.085      
H        H      0.443980000000     0.625233333333     0.081200000000    -0.085      
H        H      0.513380000000     0.572533333333     0.882650000000    -0.085      
H        H      0.453080000000     0.590866666667     0.883100000000    -0.085      
H        H      0.543980000000     0.541433333333     0.831200000000    -0.085      
H        H      0.586620000000     0.405866666667     0.867350000000    -0.085      
H        H      0.446920000000     0.424200000000     0.866900000000    -0.085      
H        H      0.556020000000     0.374766666667     0.918800000000    -0.085      
H        H      0.486620000000     0.427466666667     0.617350000000    -0.085      
H        H      0.546920000000     0.409133333333     0.616900000000    -0.085      
H        H      0.456020000000     0.458566666667     0.668800000000    -0.085      
H        H      0.413380000000     0.594133333333     0.632650000000    -0.085      
H        H      0.553080000000     0.575800000000     0.633100000000    -0.085      
H        H      0.443980000000     0.625233333333     0.581200000000    -0.085      
H        H      0.513380000000     0.905866666667     0.382650000000    -0.085      
H        H      0.453080000000     0.924200000000     0.383100000000    -0.085      
H        H      0.543980000000     0.874766666667     0.331200000000    -0.085      
H        H      0.586620000000     0.739200000000     0.367350000000    -0.085      
H        H      0.446920000000     0.757533333333     0.366900000000    -0.085      
H        H      0.556020000000     0.708100000000     0.418800000000    -0.085      
H        H      0.486620000000     0.760800000000     0.117350000000    -0.085      
H        H      0.546920000000     0.742466666667     0.116900000000    -0.085      
H        H      0.456020000000     0.791900000000     0.168800000000    -0.085      
H        H      0.413380000000     0.927466666667     0.132650000000    -0.085      
H        H      0.553080000000     0.909133333333     0.133100000000    -0.085      
H        H      0.443980000000     0.958566666667     0.081200000000    -0.085      
H        H      0.513380000000     0.905866666667     0.882650000000    -0.085      
H        H      0.453080000000     0.924200000000     0.883100000000    -0.085      
H        H      0.543980000000     0.874766666667     0.831200000000    -0.085      
H        H      0.586620000000     0.739200000000     0.867350000000    -0.085      
H        H      0.446920000000     0.757533333333     0.866900000000    -0.085      
H        H      0.556020000000     0.708100000000     0.918800000000    -0.085      
H        H      0.486620000000     0.760800000000     0.617350000000    -0.085      
H        H      0.546920000000     0.742466666667     0.616900000000    -0.085      
H        H      0.456020000000     0.791900000000     0.668800000000    -0.085      
H        H      0.413380000000     0.927466666667     0.632650000000    -0.085      
H        H      0.553080000000     0.909133333333     0.633100000000    -0.085      
H        H      0.443980000000     0.958566666667     0.581200000000    -0.085      
H        H      0.713380000000     0.239200000000     0.382650000000    -0.085      
H        H      0.653080000000     0.257533333333     0.383100000000    -0.085      
H        H      0.743980000000     0.208100000000     0.331200000000    -0.085      
H        H      0.786620000000     0.072533333333     0.367350000000    -0.085      
H        H      0.646920000000     0.090866666667     0.366900000000    -0.085      
H        H      0.756020000000     0.041433333333     0.418800000000    -0.085      
H        H      0.686620000000     0.094133333333     0.117350000000    -0.085      
H        H      0.746920000000     0.075800000000     0.116900000000    -0.085      
H        H      0.656020000000     0.125233333333     0.168800000000    -0.085      
H        H      0.613380000000     0.260800000000     0.132650000000    -0.085      
H        H      0.753080000000     0.242466666667     0.133100000000    -0.085      
H        H      0.643980000000     0.291900000000     0.081200000000    -0.085      
H        H      0.713380000000     0.239200000000     0.882650000000    -0.085      
H        H      0.653080000000     0.257533333333     0.883100000000    -0.085      
H        H      0.743980000000     0.208100000000     0.831200000000    -0.085      
H        H      0.786620000000     0.072533333333     0.867350000000    -0.085      
H        H      0.646920000000     0.090866666667     0.866900000000    -0.085      
H        H      0.756020000000     0.041433333333     0.918800000000    -0.085      
H        H      0.686620000000     0.094133333333     0.617350000000    -0.085      
H        H      0.746920000000     0.075800000000     0.616900000000    -0.085      
H        H      0.656020000000     0.125233333333     0.668800000000    -0.085      
H        H      0.613380000000     0.260800000000     0.632650000000    -0.085      
H        H      0.753080000000     0.242466666667     0.633100000000    -0.085      
H        H      0.643980000000     0.291900000000     0.581200000000    -0.085      
H        H      0.713380000000     0.572533333333     0.382650000000    -0.085      
H        H      0.653080000000     0.590866666667     0.383100000000    -0.085      
H        H      0.743980000000     0.541433333333     0.331200000000    -0.085      
H        H      0.786620000000     0.405866666667     0.367350000000    -0.085      
H        H      0.646920000000     0.424200000000     0.366900000000    -0.085      
H        H      0.756020000000     0.374766666667     0.418800000000    -0.085      
H        H      0.686620000000     0.427466666667     0.117350000000    -0.085      
H        H      0.746920000000     0.409133333333     0.116900000000    -0.085      
H        H      0.656020000000     0.458566666667     0.168800000000    -0.085      
H        H      0.613380000000     0.594133333333     0.132650000000    -0.085      
H        H      0.753080000000     0.575800000000     0.133100000000    -0.085      
H        H      0.643980000000     0.625233333333     0.081200000000    -0.085      
H        H      0.713380000000     0.572533333333     0.882650000000    -0.085      
H        H      0.653080000000     0.590866666667     0.883100000000    -0.085      
H        H      0.743980000000     0.541433333333     0.831200000000    -0.085      
H        H      0.786620000000     0.405866666667     0.867350000000    -0.085      
H        H      0.646920000000     0.424200000000     0.866900000000    -0.085      
H        H      0.756020000000     0.374766666667     0.918800000000    -0.085      
H        H      0.686620000000     0.427466666667     0.617350000000    -0.085      
H        H      0.746920000000     0.409133333333     0.616900000000    -0.085      
H        H      0.656020000000     0.458566666667     0.668800000000    -0.085      
H        H      0.613380000000     0.594133333333     0.632650000000    -0.085      
H        H      0.753080000000     0.575800000000     0.633100000000    -0.085      
H        H      0.643980000000     0.625233333333     0.581200000000    -0.085      
H        H      0.713380000000     0.905866666667     0.382650000000    -0.085      
H        H      0.653080000000     0.924200000000     0.383100000000    -0.085      
H        H      0.743980000000     0.874766666667     0.331200000000    -0.085      
H        H      0.786620000000     0.739200000000     0.367350000000    -0.085      
H        H      0.646920000000     0.757533333333     0.366900000000    -0.085      
H        H      0.756020000000     0.708100000000     0.418800000000    -0.085      
H        H      0.686620000000     0.760800000000     0.117350000000    -0.085      
H        H      0.746920000000     0.742466666667     0.116900000000    -0.085      
H        H      0.656020000000     0.791900000000     0.168800000000    -0.085      
H        H      0.613380000000     0.927466666667     0.132650000000    -0.085      
H        H      0.753080000000     0.909133333333     0.133100000000    -0.085      
H        H      0.643980000000     0.958566666667     0.081200000000    -0.085      
H        H      0.713380000000     0.905866666667     0.882650000000    -0.085      
H        H      0.653080000000     0.924200000000     0.883100000000    -0.085      
H        H      0.743980000000     0.874766666667     0.831200000000    -0.085      
H        H      0.786620000000     0.739200000000     0.867350000000    -0.085      
H        H      0.646920000000     0.757533333333     0.866900000000    -0.085      
H        H      0.756020000000     0.708100000000     0.918800000000    -0.085      
H        H      0.686620000000     0.760800000000     0.617350000000    -0.085      
H        H      0.746920000000     0.742466666667     0.616900000000    -0.085      
H        H      0.656020000000     0.791900000000     0.668800000000    -0.085      
H        H      0.613380000000     0.927466666667     0.632650000000    -0.085      
H        H      0.753080000000     0.909133333333     0.633100000000    -0.085      
H        H      0.643980000000     0.958566666667     0.581200000000    -0.085      
H        H      0.913380000000     0.239200000000     0.382650000000    -0.085      
H        H      0.853080000000     0.257533333333     0.383100000000    -0.085      
H        H      0.943980000000     0.208100000000     0.331200000000    -0.085      
H        H      0.986620000000     0.072533333333     0.367350000000    -0.085      
H        H      0.846920000000     0.090866666667     0.366900000000    -0.085      
H        H      0.956020000000     0.041433333333     0.418800000000    -0.085      
H        H      0.886620000000     0.094133333333     0.117350000000    -0.085      
H        H      0.946920000000     0.075800000000     0.116900000000    -0.085      
H        H      0.856020000000     0.125233333333     0.168800000000    -0.085      
H        H      0.813380000000     0.260800000000     0.132650000000    -0.085      
H        H      0.953080000000     0.242466666667     0.133100000000    -0.085      
H        H      0.843980000000     0.291900000000     0.081200000000    -0.085      
H        H      0.913380000000     0.239200000000     0.882650000000    -0.085      
H        H      0.853080000000     0.257533333333     0.883100000000    -0.085      
H        H      0.943980000000     0.208100000000     0.831200000000    -0.085      
H        H      0.986620000000     0.072533333333     0.867350000000    -0.085      
H        H      0.846920000000     0.090866666667     0.866900000000    -0.085      
H        H      0.956020000000     0.041433333333     0.918800000000    -0.085      
H        H      0.886620000000     0.094133333333     0.617350000000    -0.085      
H        H      0.946920000000     0.075800000000     0.616900000000    -0.085      
H        H      0.856020000000     0.125233333333     0.668800000000    -0.085      
H        H      0.813380000000     0.260800000000     0.632650000000    -0.085      
H        H      0.953080000000     0.242466666667     0.633100000000    -0.085      
H        H      0.843980000000     0.291900000000     0.581200000000    -0.085      
H        H      0.913380000000     0.572533333333     0.382650000000    -0.085      
H        H      0.853080000000     0.590866666667     0.383100000000    -0.085      
H        H      0.943980000000     0.541433333333     0.331200000000    -0.085      
H        H      0.986620000000     0.405866666667     0.367350000000    -0.085      
H        H      0.846920000000     0.424200000000     0.366900000000    -0.085      
H        H      0.956020000000     0.374766666667     0.418800000000    -0.085      
H        H      0.886620000000     0.427466666667     0.117350000000    -0.085      
H        H      0.946920000000     0.409133333333     0.116900000000    -0.085      
H        H      0.856020000000     0.458566666667     0.168800000000    -0.085      
H        H      0.813380000000     0.594133333333     0.132650000000    -0.085      
H        H      0.953080000000     0.575800000000     0.133100000000    -0.085      
H        H      0.843980000000     0.625233333333     0.081200000000    -0.085      
H        H      0.913380000000     0.572533333333     0.882650000000    -0.085      
H        H      0.853080000000     0.590866666667     0.883100000000    -0.085      
H        H      0.943980000000     0.541433333333     0.831200000000    -0.085      
H        H      0.986620000000     0.405866666667     0.867350000000    -0.085      
H        H      0.846920000000     0.424200000000     0.866900000000    -0.085      
H        H      0.956020000000     0.374766666667     0.918800000000    -0.085      
H        H      0.886620000000     0.427466666667     0.617350000000    -0.085      
H        H      0.946920000000     0.409133333333     0.616900000000    -0.085      
H        H      0.856020000000     0.458566666667     0.668800000000    -0.085      
H        H      0.813380000000     0.594133333333     0.632650000000    -0.085      
H        H      0.953080000000     0.575800000000     0.633100000000    -0.085      
H        H      0.843980000000     0.625233333333     0.581200000000    -0.085      
H        H      0.913380000000     0.905866666667     0.382650000000    -0.085      
H        H      0.853080000000     0.924200000000     0.383100000000    -0.085      
H        H      0.943980000000     0.874766666667     0.331200000000    -0.085      
H        H      0.986620000000     0.739200000000     0.367350000000    -0.085      
H        H      0.846920000000     0.757533333333     0.366900000000    -0.085      
H        H      0.956020000000     0.708100000000     0.418800000000    -0.085      
H        H      0.886620000000     0.760800000000     0.117350000000    -0.085      
H        H      0.946920000000     0.742466666667     0.116900000000    -0.085      
H        H      0.856020000000     0.791900000000     0.168800000000    -0.085      
H        H      0.813380000000     0.927466666667     0.132650000000    -0.085      
H        H      0.953080000000     0.909133333333     0.133100000000    -0.085      
H        H      0.843980000000     0.958566666667     0.081200000000    -0.085      
H        H      0.913380000000     0.905866666667     0.882650000000    -0.085      
H        H      0.853080000000     0.924200000000     0.883100000000    -0.085      
H        H      0.943980000000     0.874766666667     0.831200000000    -0.085      
H        H      0.986620000000     0.739200000000     0.867350000000    -0.085      
H        H      0.846920000000     0.757533333333     0.866900000000    -0.085      
H        H      0.956020000000     0.708100000000     0.918800000000    -0.085      
H        H      0.886620000000     0.760800000000     0.617350000000    -0.085      
H        H      0.946920000000     0.742466666667     0.616900000000    -0.085      
H        H      0.856020000000     0.791900000000     0.668800000000    -0.085      
H        H      0.813380000000     0.927466666667     0.632650000000    -0.085      
H        H      0.953080000000     0.909133333333     0.633100000000    -0.085      
H        H      0.843980000000     0.958566666667     0.581200000000    -0.085      
N        N      0.006740000000     0.273033333333     0.412050000000     0.085      
N        N      0.093260000000     0.106366666667     0.337950000000     0.085      
N        N      0.193260000000     0.060300000000     0.087950000000     0.085      
N        N      0.106740000000     0.226966666667     0.162050000000     0.085      
N        N      0.006740000000     0.273033333333     0.912050000000     0.085      
N        N      0.093260000000     0.106366666667     0.837950000000     0.085      
N        N      0.193260000000     0.060300000000     0.587950000000     0.085      
N        N      0.106740000000     0.226966666667     0.662050000000     0.085      
N        N      0.006740000000     0.606366666667     0.412050000000     0.085      
N        N      0.093260000000     0.439700000000     0.337950000000     0.085      
N        N      0.193260000000     0.393633333333     0.087950000000     0.085      
N        N      0.106740000000     0.560300000000     0.162050000000     0.085      
N        N      0.006740000000     0.606366666667     0.912050000000     0.085      
N        N      0.093260000000     0.439700000000     0.837950000000     0.085      
N        N      0.193260000000     0.393633333333     0.587950000000     0.085      
N        N      0.106740000000     0.560300000000     0.662050000000     0.085      
N        N      0.006740000000     0.939700000000     0.412050000000     0.085      
N        N      0.093260000000     0.773033333333     0.337950000000     0.085      
N        N      0.193260000000     0.726966666667     0.087950000000     0.085      
N        N      0.106740000000     0.893633333333     0.162050000000     0.085      
N        N      0.006740000000     0.939700000000     0.912050000000     0.085      
N        N      0.093260000000     0.773033333333     0.837950000000     0.085      
N        N      0.193260000000     0.726966666667     0.587950000000     0.085      
N        N      0.106740000000     0.893633333333     0.662050000000     0.085      
N        N      0.206740000000     0.273033333333     0.412050000000     0.085      
N        N      0.293260000000     0.106366666667     0.337950000000     0.085      
N        N      0.393260000000     0.060300000000     0.087950000000     0.085      
N        N      0.306740000000     0.226966666667     0.162050000000     0.085      
N        N      0.206740000000     0.273033333333     0.912050000000     0.085      
N        N      0.293260000000     0.106366666667     0.837950000000     0.085      
N        N      0.393260000000     0.060300000000     0.587950000000     0.085      
N        N      0.306740000000     0.226966666667     0.662050000000     0.085      
N        N      0.206740000000     0.606366666667     0.412050000000     0.085      
N        N      0.293260000000     0.439700000000     0.337950000000     0.085      
N        N      0.393260000000     0.393633333333     0.087950000000     0.085      
N        N      0.306740000000     0.560300000000     0.162050000000     0.085      
N        N      0.206740000000     0.606366666667     0.912050000000     0.085      
N        N      0.293260000000     0.439700000000     0.837950000000     0.085      
N        N      0.393260000000     0.393633333333     0.587950000000     0.085      
N        N      0.306740000000     0.560300000000     0.662050000000     0.085      
N        N      0.206740000000     0.939700000000     0.412050000000     0.085      
N        N      0.293260000000     0.773033333333     0.337950000000     0.085      
N        N      0.393260000000     0.726966666667     0.087950000000     0.085      
N        N      0.306740000000     0.893633333333     0.162050000000     0.085      
N        N      0.206740000000     0.939700000000     0.912050000000     0.085      
N        N      0.293260000000     0.773033333333     0.837950000000     0.085      
N        N      0.393260000000     0.726966666667     0.587950000000     0.085      
N        N      0.306740000000     0.893633333333     0.662050000000     0.085      
N        N      0.406740000000     0.273033333333     0.412050000000     0.085      
N        N      0.493260000000     0.106366666667     0.337950000000     0.085      
N        N      0.593260000000     0.060300000000     0.087950000000     0.085      
N        N      0.506740000000     0.226966666667     0.162050000000     0.085      
N        N      0.406740000000     0.273033333333     0.912050000000     0.085      
N        N      0.493260000000     0.106366666667     0.837950000000     0.085      
N        N      0.593260000000     0.060300000000     0.587950000000     0.085      
N        N      0.506740000000     0.226966666667     0.662050000000     0.085      
N        N      0.406740000000     0.606366666667     0.412050000000     0.085      
N        N      0.493260000000     0.439700000000     0.337950000000     0.085      
N        N      0.593260000000     0.393633333333     0.087950000000     0.085      
N        N      0.506740000000     0.560300000000     0.162050000000     0.085      
N        N      0.406740000000     0.606366666667     0.912050000000     0.085      
N        N      0.493260000000     0.439700000000     0.837950000000     0.085      
N        N      0.593260000000     0.393633333333     0.587950000000     0.085      
N        N      0.506740000000     0.560300000000     0.662050000000     0.085      
N        N      0.406740000000     0.939700000000     0.412050000000     0.085      
N        N      0.493260000000     0.773033333333     0.337950000000     0.085      
N        N      0.593260000000     0.726966666667     0.087950000000     0.085      
N        N      0.506740000000     0.893633333333     0.162050000000     0.085      
N        N      0.406740000000     0.939700000000     0.912050000000     0.085      
N        N      0.493260000000     0.773033333333     0.837950000000     0.085      
N        N      0.593260000000     0.726966666667     0.587950000000     0.085      
N        N      0.506740000000     0.893633333333     0.662050000000     0.085      
N        N      0.606740000000     0.273033333333     0.412050000000     0.085      
N        N      0.693260000000     0.106366666667     0.337950000000     0.085      
N        N      0.793260000000     0.060300000000     0.087950000000     0.085      
N        N      0.706740000000     0.226966666667     0.162050000000     0.085      
N        N      0.606740000000     0.273033333333     0.912050000000     0.085      
N        N      0.693260000000     0.106366666667     0.837950000000     0.085      
N        N      0.793260000000     0.060300000000     0.587950000000     0.085      
N        N      0.706740000000     0.226966666667     0.662050000000     0.085      
N        N      0.606740000000     0.606366666667     0.412050000000     0.085      
N        N      0.693260000000     0.439700000000     0.337950000000     0.085      
N        N      0.793260000000     0.393633333333     0.087950000000     0.085      
N        N      0.706740000000     0.560300000000     0.162050000000     0.085      
N        N      0.606740000000     0.606366666667     0.912050000000     0.085      
N        N      0.693260000000     0.439700000000     0.837950000000     0.085      
N        N      0.793260000000     0.393633333333     0.587950000000     0.085      
N        N      0.706740000000     0.560300000000     0.662050000000     0.085      
N        N      0.606740000000     0.939700000000     0.412050000000     0.085      
N        N      0.693260000000     0.773033333333     0.337950000000     0.085      
N        N      0.793260000000     0.726966666667     0.087950000000     0.085      
N        N      0.706740000000     0.893633333333     0.162050000000     0.085      
N        N      0.606740000000     0.939700000000     0.912050000000     0.085      
N        N      0.693260000000     0.773033333333     0.837950000000     0.085      
N        N      0.793260000000     0.726966666667     0.587950000000     0.085      
N        N      0.706740000000     0.893633333333     0.662050000000     0.085      
N        N      0.806740000000     0.273033333333     0.412050000000     0.085      
N        N      0.893260000000     0.106366666667     0.337950000000     0.085      
N        N      0.993260000000     0.060300000000     0.087950000000     0.085      
N        N      0.906740000000     0.226966666667     0.162050000000     0.085      
N        N      0.806740000000     0.273033333333     0.912050000000     0.085      
N        N      0.893260000000     0.106366666667     0.837950000000     0.085      
N        N      0.993260000000     0.060300000000     0.587950000000     0.085      
N        N      0.906740000000     0.226966666667     0.662050000000     0.085      
N        N      0.806740000000     0.606366666667     0.412050000000     0.085      
N        N      0.893260000000     0.439700000000     0.337950000000     0.085      
N        N      0.993260000000     0.393633333333     0.087950000000     0.085      
N        N      0.906740000000     0.560300000000     0.162050000000     0.085      
N        N      0.806740000000     0.606366666667     0.912050000000     0.085      
N        N      0.893260000000     0.439700000000     0.837950000000     0.085      
N        N      0.993260000000     0.393633333333     0.587950000000     0.085      
N        N      0.906740000000     0.560300000000     0.662050000000     0.085      
N        N      0.806740000000     0.939700000000     0.412050000000     0.085      
N        N      0.893260000000     0.773033333333     0.337950000000     0.085      
N        N      0.993260000000     0.726966666667     0.087950000000     0.085      
N        N      0.906740000000     0.893633333333     0.162050000000     0.085      
N        N      0.806740000000     0.939700000000     0.912050000000     0.085      
N        N      0.893260000000     0.773033333333     0.837950000000     0.085      
N        N      0.993260000000     0.726966666667     0.587950000000     0.085      
N        N      0.906740000000     0.893633333333     0.662050000000     0.085      
O        O      0.170800000000     0.310333333333     0.471315000000     0.055      
O        O      0.107720000000     0.284000000000     0.443995000000     0.055      
O        O      0.061640000000     0.198233333333     0.330380000000     0.055      
O        O      0.003200000000     0.200166666667     0.284315000000     0.055      
O        O      0.129200000000     0.143666666667     0.278685000000     0.055      
O        O      0.192280000000     0.117333333333     0.306005000000     0.055      
O        O      0.038360000000     0.031566666667     0.419620000000     0.055      
O        O      0.096800000000     0.033500000000     0.465685000000     0.055      
O        O      0.029200000000     0.023000000000     0.028685000000     0.055      
O        O      0.092280000000     0.049333333333     0.056005000000     0.055      
O        O      0.138360000000     0.135100000000     0.169620000000     0.055      
O        O      0.196800000000     0.133166666667     0.215685000000     0.055      
O        O      0.070800000000     0.189666666667     0.221315000000     0.055      
O        O      0.007720000000     0.216000000000     0.193995000000     0.055      
O        O      0.161640000000     0.301766666667     0.080380000000     0.055      
O        O      0.103200000000     0.299833333333     0.034315000000     0.055      
O        O      0.170800000000     0.310333333333     0.971315000000     0.055      
O        O      0.107720000000     0.284000000000     0.943995000000     0.055      
O        O      0.061640000000     0.198233333333     0.830380000000     0.055      
O        O      0.003200000000     0.200166666667     0.784315000000     0.055      
O        O      0.129200000000     0.143666666667     0.778685000000     0.055      
O        O      0.192280000000     0.117333333333     0.806005000000     0.055      
O        O      0.038360000000     0.031566666667     0.919620000000     0.055      
O        O      0.096800000000     0.033500000000     0.965685000000     0.055      
O        O      0.029200000000     0.023000000000     0.528685000000     0.055      
O        O      0.092280000000     0.049333333333     0.556005000000     0.055      
O        O      0.138360000000     0.135100000000     0.669620000000     0.055      
O        O      0.196800000000     0.133166666667     0.715685000000     0.055      
O        O      0.070800000000     0.189666666667     0.721315000000     0.055      
O        O      0.007720000000     0.216000000000     0.693995000000     0.055      
O        O      0.161640000000     0.301766666667     0.580380000000     0.055      
O        O      0.103200000000     0.299833333333     0.534315000000     0.055      
O        O      0.170800000000     0.643666666667     0.471315000000     0.055      
O        O      0.107720000000     0.617333333333     0.443995000000     0.055      
O        O      0.061640000000     0.531566666667     0.330380000000     0.055      
O        O      0.003200000000     0.533500000000     0.284315000000     0.055      
O        O      0.129200000000     0.477000000000     0.278685000000     0.055      
O        O      0.192280000000     0.450666666667     0.306005000000     0.055      
O        O      0.038360000000     0.364900000000     0.419620000000     0.055      
O        O      0.096800000000     0.366833333333     0.465685000000     0.055      
O        O      0.029200000000     0.356333333333     0.028685000000     0.055      
O        O      0.092280000000     0.382666666667     0.056005000000     0.055      
O        O      0.138360000000     0.468433333333     0.169620000000     0.055      
O        O      0.196800000000     0.466500000000     0.215685000000     0.055      
O        O      0.070800000000     0.523000000000     0.221315000000     0.055      
O        O      0.007720000000     0.549333333333     0.193995000000     0.055      
O        O      0.161640000000     0.635100000000     0.080380000000     0.055      
O        O      0.103200000000     0.633166666667     0.034315000000     0.055      
O        O      0.170800000000     0.643666666667     0.971315000000     0.055      
O        O      0.107720000000     0.617333333333     0.943995000000     0.055      
O        O      0.061640000000     0.531566666667     0.830380000000     0.055      
O        O      0.003200000000     0.533500000000     0.784315000000     0.055      
O        O      0.129200000000     0.477000000000     0.778685000000     0.055      
O        O      0.192280000000     0.450666666667     0.806005000000     0.055      
O        O      0.038360000000     0.364900000000     0.919620000000     0.055      
O        O      0.096800000000     0.366833333333     0.965685000000     0.055      
O        O      0.029200000000     0.356333333333     0.528685000000     0.055      
O        O      0.092280000000     0.382666666667     0.556005000000     0.055      
O        O      0.138360000000     0.468433333333     0.669620000000     0.055      
O        O      0.196800000000     0.466500000000     0.715685000000     0.055      
O        O      0.070800000000     0.523000000000     0.721315000000     0.055      
O        O      0.007720000000     0.549333333333     0.693995000000     0.055      
O        O      0.161640000000     0.635100000000     0.580380000000     0.055      
O        O      0.103200000000     0.633166666667     0.534315000000     0.055      
O        O      0.170800000000     0.977000000000     0.471315000000     0.055      
O        O      0.107720000000     0.950666666667     0.443995000000     0.055      
O        O      0.061640000000     0.864900000000     0.330380000000     0.055      
O        O      0.003200000000     0.866833333333     0.284315000000     0.055      
O        O      0.129200000000     0.810333333333     0.278685000000     0.055      
O        O      0.192280000000     0.784000000000     0.306005000000     0.055      
O        O      0.038360000000     0.698233333333     0.419620000000     0.055      
O        O      0.096800000000     0.700166666667     0.465685000000     0.055      
O        O      0.029200000000     0.689666666667     0.028685000000     0.055      
O        O      0.092280000000     0.716000000000     0.056005000000     0.055      
O        O      0.138360000000     0.801766666667     0.169620000000     0.055      
O        O      0.196800000000     0.799833333333     0.215685000000     0.055      
O        O      0.070800000000     0.856333333333     0.221315000000     0.055      
O        O      0.007720000000     0.882666666667     0.193995000000     0.055      
O        O      0.161640000000     0.968433333333     0.080380000000     0.055      
O        O      0.103200000000     0.966500000000     0.034315000000     0.055      
O        O      0.170800000000     0.977000000000     0.971315000000     0.055      
O        O      0.107720000000     0.950666666667     0.943995000000     0.055      
O        O      0.061640000000     0.864900000000     0.830380000000     0.055      
O        O      0.003200000000     0.866833333333     0.784315000000     0.055      
O        O      0.129200000000     0.810333333333     0.778685000000     0.055      
O        O      0.192280000000     0.784000000000     0.806005000000     0.055      
O        O      0.038360000000     0.698233333333     0.919620000000     0.055      
O        O      0.096800000000     0.700166666667     0.965685000000     0.055      
O        O      0.029200000000     0.689666666667     0.528685000000     0.055      
O        O      0.092280000000     0.716000000000     0.556005000000     0.055      
O        O      0.138360000000     0.801766666667     0.669620000000     0.055      
O        O      0.196800000000     0.799833333333     0.715685000000     0.055      
O        O      0.070800000000     0.856333333333     0.721315000000     0.055      
O        O      0.007720000000     0.882666666667     0.693995000000     0.055      
O        O      0.161640000000     0.968433333333     0.580380000000     0.055      
O        O      0.103200000000     0.966500000000     0.534315000000     0.055      
O        O      0.370800000000     0.310333333333     0.471315000000     0.055      
O        O      0.307720000000     0.284000000000     0.443995000000     0.055      
O        O      0.261640000000     0.198233333333     0.330380000000     0.055      
O        O      0.203200000000     0.200166666667     0.284315000000     0.055      
O        O      0.329200000000     0.143666666667     0.278685000000     0.055      
O        O      0.392280000000     0.117333333333     0.306005000000     0.055      
O        O      0.238360000000     0.031566666667     0.419620000000     0.055      
O        O      0.296800000000     0.033500000000     0.465685000000     0.055      
O        O      0.229200000000     0.023000000000     0.028685000000     0.055      
O        O      0.292280000000     0.049333333333     0.056005000000     0.055      
O        O      0.338360000000     0.135100000000     0.169620000000     0.055      
O        O      0.396800000000     0.133166666667     0.215685000000     0.055      
O        O      0.270800000000     0.189666666667     0.221315000000     0.055      
O        O      0.207720000000     0.216000000000     0.193995000000     0.055      
O        O      0.361640000000     0.301766666667     0.080380000000     0.055      
O        O      0.303200000000     0.299833333333     0.034315000000     0.055      
O        O      0.370800000000     0.310333333333     0.971315000000     0.055      
O        O      0.307720000000     0.284000000000     0.943995000000     0.055      
O        O      0.261640000000     0.198233333333     0.830380000000     0.055      
O        O      0.203200000000     0.200166666667     0.784315000000     0.055      
O        O      0.329200000000     0.143666666667     0.778685000000     0.055      
O        O      0.392280000000     0.117333333333     0.806005000000     0.055      
O        O      0.238360000000     0.031566666667     0.919620000000     0.055      
O        O      0.296800000000     0.033500000000     0.965685000000     0.055      
O        O      0.229200000000     0.023000000000     0.528685000000     0.055      
O        O      0.292280000000     0.049333333333     0.556005000000     0.055      
O        O      0.338360000000     0.135100000000     0.669620000000     0.055      
O        O      0.396800000000     0.133166666667     0.715685000000     0.055      
O        O      0.270800000000     0.189666666667     0.721315000000     0.055      
O        O      0.207720000000     0.216000000000     0.693995000000     0.055      
O        O      0.361640000000     0.301766666667     0.580380000000     0.055      
O        O      0.303200000000     0.299833333333     0.534315000000     0.055      
O        O      0.370800000000     0.643666666667     0.471315000000     0.055      
O        O      0.307720000000     0.617333333333     0.443995000000     0.055      
O        O      0.261640000000     0.531566666667     0.330380000000     0.055      
O        O      0.203200000000     0.533500000000     0.284315000000     0.055      
O        O      0.329200000000     0.477000000000     0.278685000000     0.055      
O        O      0.392280000000     0.450666666667     0.306005000000     0.055      
O        O      0.238360000000     0.364900000000     0.419620000000     0.055      
O        O      0.296800000000     0.366833333333     0.465685000000     0.055      
O        O      0.229200000000     0.356333333333     0.028685000000     0.055      
O        O      0.292280000000     0.382666666667     0.056005000000     0.055      
O        O      0.338360000000     0.468433333333     0.169620000000     0.055      
O        O      0.396800000000     0.466500000000     0.215685000000     0.055      
O        O      0.270800000000     0.523000000000     0.221315000000     0.055      
O        O      0.207720000000     0.549333333333     0.193995000000     0.055      
O        O      0.361640000000     0.635100000000     0.080380000000     0.055      
O        O      0.303200000000     0.633166666667     0.034315000000     0.055      
O        O      0.370800000000     0.643666666667     0.971315000000     0.055      
O        O      0.307720000000     0.617333333333     0.943995000000     0.055      
O        O      0.261640000000     0.531566666667     0.830380000000     0.055      
O        O      0.203200000000     0.533500000000     0.784315000000     0.055      
O        O      0.329200000000     0.477000000000     0.778685000000     0.055      
O        O      0.392280000000     0.450666666667     0.806005000000     0.055      
O        O      0.238360000000     0.364900000000     0.919620000000     0.055      
O        O      0.296800000000     0.366833333333     0.965685000000     0.055      
O        O      0.229200000000     0.356333333333     0.528685000000     0.055      
O        O      0.292280000000     0.382666666667     0.556005000000     0.055      
O        O      0.338360000000     0.468433333333     0.669620000000     0.055      
O        O      0.396800000000     0.466500000000     0.715685000000     0.055      
O        O      0.270800000000     0.523000000000     0.721315000000     0.055      
O        O      0.207720000000     0.549333333333     0.693995000000     0.055      
O        O      0.361640000000     0.635100000000     0.580380000000     0.055      
O        O      0.303200000000     0.633166666667     0.534315000000     0.055      
O        O      0.370800000000     0.977000000000     0.471315000000     0.055      
O        O      0.307720000000     0.950666666667     0.443995000000     0.055      
O        O      0.261640000000     0.864900000000     0.330380000000     0.055      
O        O      0.203200000000     0.866833333333     0.284315000000     0.055      
O        O      0.329200000000     0.810333333333     0.278685000000     0.055      
O        O      0.392280000000     0.784000000000     0.306005000000     0.055      
O        O      0.238360000000     0.698233333333     0.419620000000     0.055      
O        O      0.296800000000     0.700166666667     0.465685000000     0.055      
O        O      0.229200000000     0.689666666667     0.028685000000     0.055      
O        O      0.292280000000     0.716000000000     0.056005000000     0.055      
O        O      0.338360000000     0.801766666667     0.169620000000     0.055      
O        O      0.396800000000     0.799833333333     0.215685000000     0.055      
O        O      0.270800000000     0.856333333333     0.221315000000     0.055      
O        O      0.207720000000     0.882666666667     0.193995000000     0.055      
O        O      0.361640000000     0.968433333333     0.080380000000     0.055      
O        O      0.303200000000     0.966500000000     0.034315000000     0.055      
O        O      0.370800000000     0.977000000000     0.971315000000     0.055      
O        O      0.307720000000     0.950666666667     0.943995000000     0.055      
O        O      0.261640000000     0.864900000000     0.830380000000     0.055      
O        O      0.203200000000     0.866833333333     0.784315000000     0.055      
O        O      0.329200000000     0.810333333333     0.778685000000     0.055      
O        O      0.392280000000     0.784000000000     0.806005000000     0.055      
O        O      0.238360000000     0.698233333333     0.919620000000     0.055      
O        O      0.296800000000     0.700166666667     0.965685000000     0.055      
O        O      0.229200000000     0.689666666667     0.528685000000     0.055      
O        O      0.292280000000     0.716000000000     0.556005000000     0.055      
O        O      0.338360000000     0.801766666667     0.669620000000     0.055      
O        O      0.396800000000     0.799833333333     0.715685000000     0.055      
O        O      0.270800000000     0.856333333333     0.721315000000     0.055      
O        O      0.207720000000     0.882666666667     0.693995000000     0.055      
O        O      0.361640000000     0.968433333333     0.580380000000     0.055      
O        O      0.303200000000     0.966500000000     0.534315000000     0.055      
O        O      0.570800000000     0.310333333333     0.471315000000     0.055      
O        O      0.507720000000     0.284000000000     0.443995000000     0.055      
O        O      0.461640000000     0.198233333333     0.330380000000     0.055      
O        O      0.403200000000     0.200166666667     0.284315000000     0.055      
O        O      0.529200000000     0.143666666667     0.278685000000     0.055      
O        O      0.592280000000     0.117333333333     0.306005000000     0.055      
O        O      0.438360000000     0.031566666667     0.419620000000     0.055      
O        O      0.496800000000     0.033500000000     0.465685000000     0.055      
O        O      0.429200000000     0.023000000000     0.028685000000     0.055      
O        O      0.492280000000     0.049333333333     0.056005000000     0.055      
O        O      0.538360000000     0.135100000000     0.169620000000     0.055      
O        O      0.596800000000     0.133166666667     0.215685000000     0.055      
O        O      0.470800000000     0.189666666667     0.221315000000     0.055      
O        O      0.407720000000     0.216000000000     0.193995000000     0.055      
O        O      0.561640000000     0.301766666667     0.080380000000     0.055      
O        O      0.503200000000     0.299833333333     0.034315000000     0.055      
O        O      0.570800000000     0.310333333333     0.971315000000     0.055      
O        O      0.507720000000     0.284000000000     0.943995000000     0.055      
O        O      0.461640000000     0.198233333333     0.830380000000     0.055      
O        O      0.403200000000     0.200166666667     0.784315000000     0.055      
O        O      0.529200000000     0.143666666667     0.778685000000     0.055      
O        O      0.592280000000     0.117333333333     0.806005000000     0.055      
O        O      0.438360000000     0.031566666667     0.919620000000     0.055      
O        O      0.496800000000     0.033500000000     0.965685000000     0.055      
O        O      0.429200000000     0.023000000000     0.528685000000     0.055      
O        O      0.492280000000     0.049333333333     0.556005000000     0.055      
O        O      0.538360000000     0.135100000000     0.669620000000     0.055      
O        O      0.596800000000     0.133166666667     0.715685000000     0.055      
O        O      0.470800000000     0.189666666667     0.721315000000     0.055      
O        O      0.407720000000     0.216000000000     0.693995000000     0.055      
O        O      0.561640000000     0.301766666667     0.580380000000     0.055      
O        O      0.503200000000     0.299833333333     0.534315000000     0.055      
O        O      0.570800000000     0.643666666667     0.471315000000     0.055      
O        O      0.507720000000     0.617333333333     0.443995000000     0.055      
O        O      0.461640000000     0.531566666667     0.330380000000     0.055      
O        O      0.403200000000     0.533500000000     0.284315000000     0.055      
O        O      0.529200000000     0.477000000000     0.278685000000     0.055      
O        O      0.592280000000     0.450666666667     0.306005000000     0.055      
O        O      0.438360000000     0.364900000000     0.419620000000     0.055      
O        O      0.496800000000     0.366833333333     0.465685000000     0.055      
O        O      0.429200000000     0.356333333333     0.028685000000     0.055      
O        O      0.492280000000     0.382666666667     0.056005000000     0.055      
O        O      0.538360000000     0.468433333333     0.169620000000     0.055      
O        O      0.596800000000     0.466500000000     0.215685000000     0.055      
O        O      0.470800000000     0.523000000000     0.221315000000     0.055      
O        O      0.407720000000     0.549333333333     0.193995000000     0.055      
O        O      0.561640000000     0.635100000000     0.080380000000     0.055      
O        O      0.503200000000     0.633166666667     0.034315000000     0.055      
O        O      0.570800000000     0.643666666667     0.971315000000     0.055      
O        O      0.507720000000     0.617333333333     0.943995000000     0.055      
O        O      0.461640000000     0.531566666667     0.830380000000     0.055      
O        O      0.403200000000     0.533500000000     0.784315000000     0.055      
O        O      0.529200000000     0.477000000000     0.778685000000     0.055      
O        O      0.592280000000     0.450666666667     0.806005000000     0.055      
O        O      0.438360000000     0.364900000000     0.919620000000     0.055      
O        O      0.496800000000     0.366833333333     0.965685000000     0.055      
O        O      0.429200000000     0.356333333333     0.528685000000     0.055      
O        O      0.492280000000     0.382666666667     0.556005000000     0.055      
O        O      0.538360000000     0.468433333333     0.669620000000     0.055      
O        O      0.596800000000     0.466500000000     0.715685000000     0.055      
O        O      0.470800000000     0.523000000000     0.721315000000     0.055      
O        O      0.407720000000     0.549333333333     0.693995000000     0.055      
O        O      0.561640000000     0.635100000000     0.580380000000     0.055      
O        O      0.503200000000     0.633166666667     0.534315000000     0.055      
O        O      0.570800000000     0.977000000000     0.471315000000     0.055      
O        O      0.507720000000     0.950666666667     0.443995000000     0.055      
O        O      0.461640000000     0.864900000000     0.330380000000     0.055      
O        O      0.403200000000     0.866833333333     0.284315000000     0.055      
O        O      0.529200000000     0.810333333333     0.278685000000     0.055      
O        O      0.592280000000     0.784000000000     0.306005000000     0.055      
O        O      0.438360000000     0.698233333333     0.419620000000     0.055      
O        O      0.496800000000     0.700166666667     0.465685000000     0.055      
O        O      0.429200000000     0.689666666667     0.028685000000     0.055      
O        O      0.492280000000     0.716000000000     0.056005000000     0.055      
O        O      0.538360000000     0.801766666667     0.169620000000     0.055      
O        O      0.596800000000     0.799833333333     0.215685000000     0.055      
O        O      0.470800000000     0.856333333333     0.221315000000     0.055      
O        O      0.407720000000     0.882666666667     0.193995000000     0.055      
O        O      0.561640000000     0.968433333333     0.080380000000     0.055      
O        O      0.503200000000     0.966500000000     0.034315000000     0.055      
O        O      0.570800000000     0.977000000000     0.971315000000     0.055      
O        O      0.507720000000     0.950666666667     0.943995000000     0.055      
O        O      0.461640000000     0.864900000000     0.830380000000     0.055      
O        O      0.403200000000     0.866833333333     0.784315000000     0.055      
O        O      0.529200000000     0.810333333333     0.778685000000     0.055      
O        O      0.592280000000     0.784000000000     0.806005000000     0.055      
O        O      0.438360000000     0.698233333333     0.919620000000     0.055      
O        O      0.496800000000     0.700166666667     0.965685000000     0.055      
O        O      0.429200000000     0.689666666667     0.528685000000     0.055      
O        O      0.492280000000     0.716000000000     0.556005000000     0.055      
O        O      0.538360000000     0.801766666667     0.669620000000     0.055      
O        O      0.596800000000     0.799833333333     0.715685000000     0.055      
O        O      0.470800000000     0.856333333333     0.721315000000     0.055      
O        O      0.407720000000     0.882666666667     0.693995000000     0.055      
O        O      0.561640000000     0.968433333333     0.580380000000     0.055      
O        O      0.503200000000     0.966500000000     0.534315000000     0.055      
O        O      0.770800000000     0.310333333333     0.471315000000     0.055      
O        O      0.707720000000     0.284000000000     0.443995000000     0.055      
O        O      0.661640000000     0.198233333333     0.330380000000     0.055      
O        O      0.603200000000     0.200166666667     0.284315000000     0.055      
O        O      0.729200000000     0.143666666667     0.278685000000     0.055      
O        O      0.792280000000     0.117333333333     0.306005000000     0.055      
O        O      0.638360000000     0.031566666667     0.419620000000     0.055      
O        O      0.696800000000     0.033500000000     0.465685000000     0.055      
O        O      0.629200000000     0.023000000000     0.028685000000     0.055      
O        O      0.692280000000     0.049333333333     0.056005000000     0.055      
O        O      0.738360000000     0.135100000000     0.169620000000     0.055      
O        O      0.796800000000     0.133166666667     0.215685000000     0.055      
O        O      0.670800000000     0.189666666667     0.221315000000     0.055      
O        O      0.607720000000     0.216000000000     0.193995000000     0.055      
O        O      0.761640000000     0.301766666667     0.080380000000     0.055      
O        O      0.703200000000     0.299833333333     0.034315000000     0.055      
O        O      0.770800000000     0.310333333333     0.971315000000     0.055      
O        O      0.707720000000     0.284000000000     0.943995000000     0.055      
O        O      0.661640000000     0.198233333333     0.830380000000     0.055      
O        O      0.603200000000     0.200166666667     0.784315000000     0.055      
O        O      0.729200000000     0.143666666667     0.778685000000     0.055      
O        O      0.792280000000     0.117333333333     0.806005000000     0.055      
O        O      0.638360000000     0.031566666667     0.919620000000     0.055      
O        O      0.696800000000     0.033500000000     0.965685000000     0.055      
O        O      0.629200000000     0.023000000000     0.528685000000     0.055      
O        O      0.692280000000     0.049333333333     0.556005000000     0.055      
O        O      0.738360000000     0.135100000000     0.669620000000     0.055      
O        O      0.796800000000     0.133166666667     0.715685000000     0.055      
O        O      0.670800000000     0.189666666667     0.721315000000     0.055      
O        O      0.607720000000     0.216000000000     0.693995000000     0.055      
O        O      0.761640000000     0.301766666667     0.580380000000     0.055      
O        O      0.703200000000     0.299833333333     0.534315000000     0.055      
O        O      0.770800000000     0.643666666667     0.471315000000     0.055      
O        O      0.707720000000     0.617333333333     0.443995000000     0.055      
O        O      0.661640000000     0.531566666667     0.330380000000     0.055      
O        O      0.603200000000     0.533500000000     0.284315000000     0.055      
O        O      0.729200000000     0.477000000000     0.278685000000     0.055      
O        O      0.792280000000     0.450666666667     0.306005000000     0.055      
O        O      0.638360000000     0.364900000000     0.419620000000     0.055      
O        O      0.696800000000     0.366833333333     0.465685000000     0.055      
O        O      0.629200000000     0.356333333333     0.028685000000     0.055      
O        O      0.692280000000     0.382666666667     0.056005000000     0.055      
O        O      0.738360000000     0.468433333333     0.169620000000     0.055      
O        O      0.796800000000     0.466500000000     0.215685000000     0.055      
O        O      0.670800000000     0.523000000000     0.221315000000     0.055      
O        O      0.607720000000     0.549333333333     0.193995000000     0.055      
O        O      0.761640000000     0.635100000000     0.080380000000     0.055      
O        O      0.703200000000     0.633166666667     0.034315000000     0.055      
O        O      0.770800000000     0.643666666667     0.971315000000     0.055      
O        O      0.707720000000     0.617333333333     0.943995000000     0.055      
O        O      0.661640000000     0.531566666667     0.830380000000     0.055      
O        O      0.603200000000     0.533500000000     0.784315000000     0.055      
O        O      0.729200000000     0.477000000000     0.778685000000     0.055      
O        O      0.792280000000     0.450666666667     0.806005000000     0.055      
O        O      0.638360000000     0.364900000000     0.919620000000     0.055      
O        O      0.696800000000     0.366833333333     0.965685000000     0.055      
O        O      0.629200000000     0.356333333333     0.528685000000     0.055      
O        O      0.692280000000     0.382666666667     0.556005000000     0.055      
O        O      0.738360000000     0.468433333333     0.669620000000     0.055      
O        O      0.796800000000     0.466500000000     0.715685000000     0.055      
O        O      0.670800000000     0.523000000000     0.721315000000     0.055      
O        O      0.607720000000     0.549333333333     0.693995000000     0.055      
O        O      0.761640000000     0.635100000000     0.580380000000     0.055      
O        O      0.703200000000     0.633166666667     0.534315000000     0.055      
O        O      0.770800000000     0.977000000000     0.471315000000     0.055      
O        O      0.707720000000     0.950666666667     0.443995000000     0.055      
O        O      0.661640000000     0.864900000000     0.330380000000     0.055      
O        O      0.603200000000     0.866833333333     0.284315000000     0.055      
O        O      0.729200000000     0.810333333333     0.278685000000     0.055      
O        O      0.792280000000     0.784000000000     0.306005000000     0.055      
O        O      0.638360000000     0.698233333333     0.419620000000     0.055      
O        O      0.696800000000     0.700166666667     0.465685000000     0.055      
O        O      0.629200000000     0.689666666667     0.028685000000     0.055      
O        O      0.692280000000     0.716000000000     0.056005000000     0.055      
O        O      0.738360000000     0.801766666667     0.169620000000     0.055      
O        O      0.796800000000     0.799833333333     0.215685000000     0.055      
O        O      0.670800000000     0.856333333333     0.221315000000     0.055      
O        O      0.607720000000     0.882666666667     0.193995000000     0.055      
O        O      0.761640000000     0.968433333333     0.080380000000     0.055      
O        O      0.703200000000     0.966500000000     0.034315000000     0.055      
O        O      0.770800000000     0.977000000000     0.971315000000     0.055      
O        O      0.707720000000     0.950666666667     0.943995000000     0.055      
O        O      0.661640000000     0.864900000000     0.830380000000     0.055      
O        O      0.603200000000     0.866833333333     0.784315000000     0.055      
O        O      0.729200000000     0.810333333333     0.778685000000     0.055      
O        O      0.792280000000     0.784000000000     0.806005000000     0.055      
O        O      0.638360000000     0.698233333333     0.919620000000     0.055      
O        O      0.696800000000     0.700166666667     0.965685000000     0.055      
O        O      0.629200000000     0.689666666667     0.528685000000     0.055      
O        O      0.692280000000     0.716000000000     0.556005000000     0.055      
O        O      0.738360000000     0.801766666667     0.669620000000     0.055      
O        O      0.796800000000     0.799833333333     0.715685000000     0.055      
O        O      0.670800000000     0.856333333333     0.721315000000     0.055      
O        O      0.607720000000     0.882666666667     0.693995000000     0.055      
O        O      0.761640000000     0.968433333333     0.580380000000     0.055      
O        O      0.703200000000     0.966500000000     0.534315000000     0.055      
O        O      0.970800000000     0.310333333333     0.471315000000     0.055      
O        O      0.907720000000     0.284000000000     0.443995000000     0.055      
O        O      0.861640000000     0.198233333333     0.330380000000     0.055      
O        O      0.803200000000     0.200166666667     0.284315000000     0.055      
O        O      0.929200000000     0.143666666667     0.278685000000     0.055      
O        O      0.992280000000     0.117333333333     0.306005000000     0.055      
O        O      0.838360000000     0.031566666667     0.419620000000     0.055      
O        O      0.896800000000     0.033500000000     0.465685000000     0.055      
O        O      0.829200000000     0.023000000000     0.028685000000     0.055      
O        O      0.892280000000     0.049333333333     0.056005000000     0.055      
O        O      0.938360000000     0.135100000000     0.169620000000     0.055      
O        O      0.996800000000     0.133166666667     0.215685000000     0.055      
O        O      0.870800000000     0.189666666667     0.221315000000     0.055      
O        O      0.807720000000     0.216000000000     0.193995000000     0.055      
O        O      0.961640000000     0.301766666667     0.080380000000     0.055      
O        O      0.903200000000     0.299833333333     0.034315000000     0.055      
O        O      0.970800000000     0.310333333333     0.971315000000     0.055      
O        O      0.907720000000     0.284000000000     0.943995000000     0.055      
O        O      0.861640000000     0.198233333333     0.830380000000     0.055      
O        O      0.803200000000     0.200166666667     0.784315000000     0.055      
O        O      0.929200000000     0.143666666667     0.778685000000     0.055      
O        O      0.992280000000     0.117333333333     0.806005000000     0.055      
O        O      0.838360000000     0.031566666667     0.919620000000     0.055      
O        O      0.896800000000     0.033500000000     0.965685000000     0.055      
O        O      0.829200000000     0.023000000000     0.528685000000     0.055      
O        O      0.892280000000     0.049333333333     0.556005000000     0.055      
O        O      0.938360000000     0.135100000000     0.669620000000     0.055      
O        O      0.996800000000     0.133166666667     0.715685000000     0.055      
O        O      0.870800000000     0.189666666667     0.721315000000     0.055      
O        O      0.807720000000     0.216000000000     0.693995000000     0.055      
O        O      0.961640000000     0.301766666667     0.580380000000     0.055      
O        O      0.903200000000     0.299833333333     0.534315000000     0.055      
O        O      0.970800000000     0.643666666667     0.471315000000     0.055      
O        O      0.907720000000     0.617333333333     0.443995000000     0.055      
O        O      0.861640000000     0.531566666667     0.330380000000     0.055      
O        O      0.803200000000     0.533500000000     0.284315000000     0.055      
O        O      0.929200000000     0.477000000000     0.278685000000     0.055      
O        O      0.992280000000     0.450666666667     0.306005000000     0.055      
O        O      0.838360000000     0.364900000000     0.419620000000     0.055      
O        O      0.896800000000     0.366833333333     0.465685000000     0.055      
O        O      0.829200000000     0.356333333333     0.028685000000     0.055      
O        O      0.892280000000     0.382666666667     0.056005000000     0.055      
O        O      0.938360000000     0.468433333333     0.169620000000     0.055      
O        O      0.996800000000     0.466500000000     0.215685000000     0.055      
O        O      0.870800000000     0.523000000000     0.221315000000     0.055      
O        O      0.807720000000     0.549333333333     0.193995000000     0.055      
O        O      0.961640000000     0.635100000000     0.080380000000     0.055      
O        O      0.903200000000     0.633166666667     0.034315000000     0.055      
O        O      0.970800000000     0.643666666667     0.971315000000     0.055      
O        O      0.907720000000     0.617333333333     0.943995000000     0.055      
O        O      0.861640000000     0.531566666667     0.830380000000     0.055      
O        O      0.803200000000     0.533500000000     0.784315000000     0.055      
O        O      0.929200000000     0.477000000000     0.778685000000     0.055      
O        O      0.992280000000     0.450666666667     0.806005000000     0.055      
O        O      0.838360000000     0.364900000000     0.919620000000     0.055      
O        O      0.896800000000     0.366833333333     0.965685000000     0.055      
O        O      0.829200000000     0.356333333333     0.528685000000     0.055      
O        O      0.892280000000     0.382666666667     0.556005000000     0.055      
O        O      0.938360000000     0.468433333333     0.669620000000     0.055      
O        O      0.996800000000     0.466500000000     0.715685000000     0.055      
O        O      0.870800000000     0.523000000000     0.721315000000     0.055      
O        O      0.807720000000     0.549333333333     0.693995000000     0.055      
O        O      0.961640000000     0.635100000000     0.580380000000     0.055      
O        O      0.903200000000     0.633166666667     0.534315000000     0.055      
O        O      0.970800000000     0.977000000000     0.471315000000     0.055      
O        O      0.907720000000     0.950666666667     0.443995000000     0.055      
O        O      0.861640000000     0.864900000000     0.330380000000     0.055      
O        O      0.803200000000     0.866833333333     0.284315000000     0.055      
O        O      0.929200000000     0.810333333333     0.278685000000     0.055      
O        O      0.992280000000     0.784000000000     0.306005000000     0.055      
O        O      0.838360000000     0.698233333333     0.419620000000     0.055      
O        O      0.896800000000     0.700166666667     0.465685000000     0.055      
O        O      0.829200000000     0.689666666667     0.028685000000     0.055      
O        O      0.892280000000     0.716000000000     0.056005000000     0.055      
O        O      0.938360000000     0.801766666667     0.169620000000     0.055      
O        O      0.996800000000     0.799833333333     0.215685000000     0.055      
O        O      0.870800000000     0.856333333333     0.221315000000     0.055      
O        O      0.807720000000     0.882666666667     0.193995000000     0.055      
O        O      0.961640000000     0.968433333333     0.080380000000     0.055      
O        O      0.903200000000     0.966500000000     0.034315000000     0.055      
O        O      0.970800000000     0.977000000000     0.971315000000     0.055      
O        O      0.907720000000     0.950666666667     0.943995000000     0.055      
O        O      0.861640000000     0.864900000000     0.830380000000     0.055      
O        O      0.803200000000     0.866833333333     0.784315000000     0.055      
O        O      0.929200000000     0.810333333333     0.778685000000     0.055      
O        O      0.992280000000     0.784000000000     0.806005000000     0.055      
O        O      0.838360000000     0.698233333333     0.919620000000     0.055      
O        O      0.896800000000     0.700166666667     0.965685000000     0.055      
O        O      0.829200000000     0.689666666667     0.528685000000     0.055      
O        O      0.892280000000     0.716000000000     0.556005000000     0.055      
O        O      0.938360000000     0.801766666667     0.669620000000     0.055      
O        O      0.996800000000     0.799833333333     0.715685000000     0.055      
O        O      0.870800000000     0.856333333333     0.721315000000     0.055      
O        O      0.807720000000     0.882666666667     0.693995000000     0.055      
O        O      0.961640000000     0.968433333333     0.580380000000     0.055      
O        O      0.903200000000     0.966500000000     0.534315000000     0.055      


