data_ZAZBUZ_clean

_audit_creation_method RASPA-1.0
_audit_creation_date 2025-9-8
_audit_author_name ''

_cell_length_a    6.605
_cell_length_b    10.4478
_cell_length_c    11.0881
_cell_angle_alpha 62.064
_cell_angle_beta  73.41
_cell_angle_gamma 78.404
_cell_volume      29061.6

_symmetry_cell_setting          triclinic
_symmetry_space_group_name_Hall 'P 1'
_symmetry_space_group_name_H-M  'P 1'
_symmetry_Int_Tables_number     1

_symmetry_equiv_pos_as_xyz 'x,y,z'

loop_
_atom_site_label
_atom_site_type_symbol
_atom_site_fract_x
_atom_site_fract_y
_atom_site_fract_z
_atom_site_charge
C        C      0.027260000000     0.332033333333     0.242966666667    -0.003      
C        C      0.032940000000     0.239233333333     0.175333333333    -0.003      
C        C      0.110280000000     0.212366666667     0.155433333333    -0.003      
C        C      0.013100000000     0.332900000000     0.289900000000    -0.003      
C        C      0.068040000000     0.201800000000     0.171066666667    -0.003      
C        C      0.058020000000     0.155800000000     0.182100000000    -0.003      
C        C      0.041260000000     0.009233333333     0.308133333333    -0.003      
C        C      0.172000000000     0.323566666667     0.315100000000    -0.003      
C        C      0.172740000000     0.001300000000     0.090366666667    -0.003      
C        C      0.167060000000     0.094100000000     0.158000000000    -0.003      
C        C      0.089720000000     0.120966666667     0.177900000000    -0.003      
C        C      0.186900000000     0.000433333333     0.043433333333    -0.003      
C        C      0.131960000000     0.131533333333     0.162266666667    -0.003      
C        C      0.141980000000     0.177533333333     0.151233333333    -0.003      
C        C      0.158740000000     0.324100000000     0.025200000000    -0.003      
C        C      0.028000000000     0.009766666667     0.018233333333    -0.003      
C        C      0.027260000000     0.332033333333     0.576300000000    -0.003      
C        C      0.032940000000     0.239233333333     0.508666666667    -0.003      
C        C      0.110280000000     0.212366666667     0.488766666667    -0.003      
C        C      0.013100000000     0.332900000000     0.623233333333    -0.003      
C        C      0.068040000000     0.201800000000     0.504400000000    -0.003      
C        C      0.058020000000     0.155800000000     0.515433333333    -0.003      
C        C      0.041260000000     0.009233333333     0.641466666667    -0.003      
C        C      0.172000000000     0.323566666667     0.648433333333    -0.003      
C        C      0.172740000000     0.001300000000     0.423700000000    -0.003      
C        C      0.167060000000     0.094100000000     0.491333333333    -0.003      
C        C      0.089720000000     0.120966666667     0.511233333333    -0.003      
C        C      0.186900000000     0.000433333333     0.376766666667    -0.003      
C        C      0.131960000000     0.131533333333     0.495600000000    -0.003      
C        C      0.141980000000     0.177533333333     0.484566666667    -0.003      
C        C      0.158740000000     0.324100000000     0.358533333333    -0.003      
C        C      0.028000000000     0.009766666667     0.351566666667    -0.003      
C        C      0.027260000000     0.332033333333     0.909633333333    -0.003      
C        C      0.032940000000     0.239233333333     0.842000000000    -0.003      
C        C      0.110280000000     0.212366666667     0.822100000000    -0.003      
C        C      0.013100000000     0.332900000000     0.956566666667    -0.003      
C        C      0.068040000000     0.201800000000     0.837733333333    -0.003      
C        C      0.058020000000     0.155800000000     0.848766666667    -0.003      
C        C      0.041260000000     0.009233333333     0.974800000000    -0.003      
C        C      0.172000000000     0.323566666667     0.981766666667    -0.003      
C        C      0.172740000000     0.001300000000     0.757033333333    -0.003      
C        C      0.167060000000     0.094100000000     0.824666666667    -0.003      
C        C      0.089720000000     0.120966666667     0.844566666667    -0.003      
C        C      0.186900000000     0.000433333333     0.710100000000    -0.003      
C        C      0.131960000000     0.131533333333     0.828933333333    -0.003      
C        C      0.141980000000     0.177533333333     0.817900000000    -0.003      
C        C      0.158740000000     0.324100000000     0.691866666667    -0.003      
C        C      0.028000000000     0.009766666667     0.684900000000    -0.003      
C        C      0.027260000000     0.665366666667     0.242966666667    -0.003      
C        C      0.032940000000     0.572566666667     0.175333333333    -0.003      
C        C      0.110280000000     0.545700000000     0.155433333333    -0.003      
C        C      0.013100000000     0.666233333333     0.289900000000    -0.003      
C        C      0.068040000000     0.535133333333     0.171066666667    -0.003      
C        C      0.058020000000     0.489133333333     0.182100000000    -0.003      
C        C      0.041260000000     0.342566666667     0.308133333333    -0.003      
C        C      0.172000000000     0.656900000000     0.315100000000    -0.003      
C        C      0.172740000000     0.334633333333     0.090366666667    -0.003      
C        C      0.167060000000     0.427433333333     0.158000000000    -0.003      
C        C      0.089720000000     0.454300000000     0.177900000000    -0.003      
C        C      0.186900000000     0.333766666667     0.043433333333    -0.003      
C        C      0.131960000000     0.464866666667     0.162266666667    -0.003      
C        C      0.141980000000     0.510866666667     0.151233333333    -0.003      
C        C      0.158740000000     0.657433333333     0.025200000000    -0.003      
C        C      0.028000000000     0.343100000000     0.018233333333    -0.003      
C        C      0.027260000000     0.665366666667     0.576300000000    -0.003      
C        C      0.032940000000     0.572566666667     0.508666666667    -0.003      
C        C      0.110280000000     0.545700000000     0.488766666667    -0.003      
C        C      0.013100000000     0.666233333333     0.623233333333    -0.003      
C        C      0.068040000000     0.535133333333     0.504400000000    -0.003      
C        C      0.058020000000     0.489133333333     0.515433333333    -0.003      
C        C      0.041260000000     0.342566666667     0.641466666667    -0.003      
C        C      0.172000000000     0.656900000000     0.648433333333    -0.003      
C        C      0.172740000000     0.334633333333     0.423700000000    -0.003      
C        C      0.167060000000     0.427433333333     0.491333333333    -0.003      
C        C      0.089720000000     0.454300000000     0.511233333333    -0.003      
C        C      0.186900000000     0.333766666667     0.376766666667    -0.003      
C        C      0.131960000000     0.464866666667     0.495600000000    -0.003      
C        C      0.141980000000     0.510866666667     0.484566666667    -0.003      
C        C      0.158740000000     0.657433333333     0.358533333333    -0.003      
C        C      0.028000000000     0.343100000000     0.351566666667    -0.003      
C        C      0.027260000000     0.665366666667     0.909633333333    -0.003      
C        C      0.032940000000     0.572566666667     0.842000000000    -0.003      
C        C      0.110280000000     0.545700000000     0.822100000000    -0.003      
C        C      0.013100000000     0.666233333333     0.956566666667    -0.003      
C        C      0.068040000000     0.535133333333     0.837733333333    -0.003      
C        C      0.058020000000     0.489133333333     0.848766666667    -0.003      
C        C      0.041260000000     0.342566666667     0.974800000000    -0.003      
C        C      0.172000000000     0.656900000000     0.981766666667    -0.003      
C        C      0.172740000000     0.334633333333     0.757033333333    -0.003      
C        C      0.167060000000     0.427433333333     0.824666666667    -0.003      
C        C      0.089720000000     0.454300000000     0.844566666667    -0.003      
C        C      0.186900000000     0.333766666667     0.710100000000    -0.003      
C        C      0.131960000000     0.464866666667     0.828933333333    -0.003      
C        C      0.141980000000     0.510866666667     0.817900000000    -0.003      
C        C      0.158740000000     0.657433333333     0.691866666667    -0.003      
C        C      0.028000000000     0.343100000000     0.684900000000    -0.003      
C        C      0.027260000000     0.998700000000     0.242966666667    -0.003      
C        C      0.032940000000     0.905900000000     0.175333333333    -0.003      
C        C      0.110280000000     0.879033333333     0.155433333333    -0.003      
C        C      0.013100000000     0.999566666667     0.289900000000    -0.003      
C        C      0.068040000000     0.868466666667     0.171066666667    -0.003      
C        C      0.058020000000     0.822466666667     0.182100000000    -0.003      
C        C      0.041260000000     0.675900000000     0.308133333333    -0.003      
C        C      0.172000000000     0.990233333333     0.315100000000    -0.003      
C        C      0.172740000000     0.667966666667     0.090366666667    -0.003      
C        C      0.167060000000     0.760766666667     0.158000000000    -0.003      
C        C      0.089720000000     0.787633333333     0.177900000000    -0.003      
C        C      0.186900000000     0.667100000000     0.043433333333    -0.003      
C        C      0.131960000000     0.798200000000     0.162266666667    -0.003      
C        C      0.141980000000     0.844200000000     0.151233333333    -0.003      
C        C      0.158740000000     0.990766666667     0.025200000000    -0.003      
C        C      0.028000000000     0.676433333333     0.018233333333    -0.003      
C        C      0.027260000000     0.998700000000     0.576300000000    -0.003      
C        C      0.032940000000     0.905900000000     0.508666666667    -0.003      
C        C      0.110280000000     0.879033333333     0.488766666667    -0.003      
C        C      0.013100000000     0.999566666667     0.623233333333    -0.003      
C        C      0.068040000000     0.868466666667     0.504400000000    -0.003      
C        C      0.058020000000     0.822466666667     0.515433333333    -0.003      
C        C      0.041260000000     0.675900000000     0.641466666667    -0.003      
C        C      0.172000000000     0.990233333333     0.648433333333    -0.003      
C        C      0.172740000000     0.667966666667     0.423700000000    -0.003      
C        C      0.167060000000     0.760766666667     0.491333333333    -0.003      
C        C      0.089720000000     0.787633333333     0.511233333333    -0.003      
C        C      0.186900000000     0.667100000000     0.376766666667    -0.003      
C        C      0.131960000000     0.798200000000     0.495600000000    -0.003      
C        C      0.141980000000     0.844200000000     0.484566666667    -0.003      
C        C      0.158740000000     0.990766666667     0.358533333333    -0.003      
C        C      0.028000000000     0.676433333333     0.351566666667    -0.003      
C        C      0.027260000000     0.998700000000     0.909633333333    -0.003      
C        C      0.032940000000     0.905900000000     0.842000000000    -0.003      
C        C      0.110280000000     0.879033333333     0.822100000000    -0.003      
C        C      0.013100000000     0.999566666667     0.956566666667    -0.003      
C        C      0.068040000000     0.868466666667     0.837733333333    -0.003      
C        C      0.058020000000     0.822466666667     0.848766666667    -0.003      
C        C      0.041260000000     0.675900000000     0.974800000000    -0.003      
C        C      0.172000000000     0.990233333333     0.981766666667    -0.003      
C        C      0.172740000000     0.667966666667     0.757033333333    -0.003      
C        C      0.167060000000     0.760766666667     0.824666666667    -0.003      
C        C      0.089720000000     0.787633333333     0.844566666667    -0.003      
C        C      0.186900000000     0.667100000000     0.710100000000    -0.003      
C        C      0.131960000000     0.798200000000     0.828933333333    -0.003      
C        C      0.141980000000     0.844200000000     0.817900000000    -0.003      
C        C      0.158740000000     0.990766666667     0.691866666667    -0.003      
C        C      0.028000000000     0.676433333333     0.684900000000    -0.003      
C        C      0.227260000000     0.332033333333     0.242966666667    -0.003      
C        C      0.232940000000     0.239233333333     0.175333333333    -0.003      
C        C      0.310280000000     0.212366666667     0.155433333333    -0.003      
C        C      0.213100000000     0.332900000000     0.289900000000    -0.003      
C        C      0.268040000000     0.201800000000     0.171066666667    -0.003      
C        C      0.258020000000     0.155800000000     0.182100000000    -0.003      
C        C      0.241260000000     0.009233333333     0.308133333333    -0.003      
C        C      0.372000000000     0.323566666667     0.315100000000    -0.003      
C        C      0.372740000000     0.001300000000     0.090366666667    -0.003      
C        C      0.367060000000     0.094100000000     0.158000000000    -0.003      
C        C      0.289720000000     0.120966666667     0.177900000000    -0.003      
C        C      0.386900000000     0.000433333333     0.043433333333    -0.003      
C        C      0.331960000000     0.131533333333     0.162266666667    -0.003      
C        C      0.341980000000     0.177533333333     0.151233333333    -0.003      
C        C      0.358740000000     0.324100000000     0.025200000000    -0.003      
C        C      0.228000000000     0.009766666667     0.018233333333    -0.003      
C        C      0.227260000000     0.332033333333     0.576300000000    -0.003      
C        C      0.232940000000     0.239233333333     0.508666666667    -0.003      
C        C      0.310280000000     0.212366666667     0.488766666667    -0.003      
C        C      0.213100000000     0.332900000000     0.623233333333    -0.003      
C        C      0.268040000000     0.201800000000     0.504400000000    -0.003      
C        C      0.258020000000     0.155800000000     0.515433333333    -0.003      
C        C      0.241260000000     0.009233333333     0.641466666667    -0.003      
C        C      0.372000000000     0.323566666667     0.648433333333    -0.003      
C        C      0.372740000000     0.001300000000     0.423700000000    -0.003      
C        C      0.367060000000     0.094100000000     0.491333333333    -0.003      
C        C      0.289720000000     0.120966666667     0.511233333333    -0.003      
C        C      0.386900000000     0.000433333333     0.376766666667    -0.003      
C        C      0.331960000000     0.131533333333     0.495600000000    -0.003      
C        C      0.341980000000     0.177533333333     0.484566666667    -0.003      
C        C      0.358740000000     0.324100000000     0.358533333333    -0.003      
C        C      0.228000000000     0.009766666667     0.351566666667    -0.003      
C        C      0.227260000000     0.332033333333     0.909633333333    -0.003      
C        C      0.232940000000     0.239233333333     0.842000000000    -0.003      
C        C      0.310280000000     0.212366666667     0.822100000000    -0.003      
C        C      0.213100000000     0.332900000000     0.956566666667    -0.003      
C        C      0.268040000000     0.201800000000     0.837733333333    -0.003      
C        C      0.258020000000     0.155800000000     0.848766666667    -0.003      
C        C      0.241260000000     0.009233333333     0.974800000000    -0.003      
C        C      0.372000000000     0.323566666667     0.981766666667    -0.003      
C        C      0.372740000000     0.001300000000     0.757033333333    -0.003      
C        C      0.367060000000     0.094100000000     0.824666666667    -0.003      
C        C      0.289720000000     0.120966666667     0.844566666667    -0.003      
C        C      0.386900000000     0.000433333333     0.710100000000    -0.003      
C        C      0.331960000000     0.131533333333     0.828933333333    -0.003      
C        C      0.341980000000     0.177533333333     0.817900000000    -0.003      
C        C      0.358740000000     0.324100000000     0.691866666667    -0.003      
C        C      0.228000000000     0.009766666667     0.684900000000    -0.003      
C        C      0.227260000000     0.665366666667     0.242966666667    -0.003      
C        C      0.232940000000     0.572566666667     0.175333333333    -0.003      
C        C      0.310280000000     0.545700000000     0.155433333333    -0.003      
C        C      0.213100000000     0.666233333333     0.289900000000    -0.003      
C        C      0.268040000000     0.535133333333     0.171066666667    -0.003      
C        C      0.258020000000     0.489133333333     0.182100000000    -0.003      
C        C      0.241260000000     0.342566666667     0.308133333333    -0.003      
C        C      0.372000000000     0.656900000000     0.315100000000    -0.003      
C        C      0.372740000000     0.334633333333     0.090366666667    -0.003      
C        C      0.367060000000     0.427433333333     0.158000000000    -0.003      
C        C      0.289720000000     0.454300000000     0.177900000000    -0.003      
C        C      0.386900000000     0.333766666667     0.043433333333    -0.003      
C        C      0.331960000000     0.464866666667     0.162266666667    -0.003      
C        C      0.341980000000     0.510866666667     0.151233333333    -0.003      
C        C      0.358740000000     0.657433333333     0.025200000000    -0.003      
C        C      0.228000000000     0.343100000000     0.018233333333    -0.003      
C        C      0.227260000000     0.665366666667     0.576300000000    -0.003      
C        C      0.232940000000     0.572566666667     0.508666666667    -0.003      
C        C      0.310280000000     0.545700000000     0.488766666667    -0.003      
C        C      0.213100000000     0.666233333333     0.623233333333    -0.003      
C        C      0.268040000000     0.535133333333     0.504400000000    -0.003      
C        C      0.258020000000     0.489133333333     0.515433333333    -0.003      
C        C      0.241260000000     0.342566666667     0.641466666667    -0.003      
C        C      0.372000000000     0.656900000000     0.648433333333    -0.003      
C        C      0.372740000000     0.334633333333     0.423700000000    -0.003      
C        C      0.367060000000     0.427433333333     0.491333333333    -0.003      
C        C      0.289720000000     0.454300000000     0.511233333333    -0.003      
C        C      0.386900000000     0.333766666667     0.376766666667    -0.003      
C        C      0.331960000000     0.464866666667     0.495600000000    -0.003      
C        C      0.341980000000     0.510866666667     0.484566666667    -0.003      
C        C      0.358740000000     0.657433333333     0.358533333333    -0.003      
C        C      0.228000000000     0.343100000000     0.351566666667    -0.003      
C        C      0.227260000000     0.665366666667     0.909633333333    -0.003      
C        C      0.232940000000     0.572566666667     0.842000000000    -0.003      
C        C      0.310280000000     0.545700000000     0.822100000000    -0.003      
C        C      0.213100000000     0.666233333333     0.956566666667    -0.003      
C        C      0.268040000000     0.535133333333     0.837733333333    -0.003      
C        C      0.258020000000     0.489133333333     0.848766666667    -0.003      
C        C      0.241260000000     0.342566666667     0.974800000000    -0.003      
C        C      0.372000000000     0.656900000000     0.981766666667    -0.003      
C        C      0.372740000000     0.334633333333     0.757033333333    -0.003      
C        C      0.367060000000     0.427433333333     0.824666666667    -0.003      
C        C      0.289720000000     0.454300000000     0.844566666667    -0.003      
C        C      0.386900000000     0.333766666667     0.710100000000    -0.003      
C        C      0.331960000000     0.464866666667     0.828933333333    -0.003      
C        C      0.341980000000     0.510866666667     0.817900000000    -0.003      
C        C      0.358740000000     0.657433333333     0.691866666667    -0.003      
C        C      0.228000000000     0.343100000000     0.684900000000    -0.003      
C        C      0.227260000000     0.998700000000     0.242966666667    -0.003      
C        C      0.232940000000     0.905900000000     0.175333333333    -0.003      
C        C      0.310280000000     0.879033333333     0.155433333333    -0.003      
C        C      0.213100000000     0.999566666667     0.289900000000    -0.003      
C        C      0.268040000000     0.868466666667     0.171066666667    -0.003      
C        C      0.258020000000     0.822466666667     0.182100000000    -0.003      
C        C      0.241260000000     0.675900000000     0.308133333333    -0.003      
C        C      0.372000000000     0.990233333333     0.315100000000    -0.003      
C        C      0.372740000000     0.667966666667     0.090366666667    -0.003      
C        C      0.367060000000     0.760766666667     0.158000000000    -0.003      
C        C      0.289720000000     0.787633333333     0.177900000000    -0.003      
C        C      0.386900000000     0.667100000000     0.043433333333    -0.003      
C        C      0.331960000000     0.798200000000     0.162266666667    -0.003      
C        C      0.341980000000     0.844200000000     0.151233333333    -0.003      
C        C      0.358740000000     0.990766666667     0.025200000000    -0.003      
C        C      0.228000000000     0.676433333333     0.018233333333    -0.003      
C        C      0.227260000000     0.998700000000     0.576300000000    -0.003      
C        C      0.232940000000     0.905900000000     0.508666666667    -0.003      
C        C      0.310280000000     0.879033333333     0.488766666667    -0.003      
C        C      0.213100000000     0.999566666667     0.623233333333    -0.003      
C        C      0.268040000000     0.868466666667     0.504400000000    -0.003      
C        C      0.258020000000     0.822466666667     0.515433333333    -0.003      
C        C      0.241260000000     0.675900000000     0.641466666667    -0.003      
C        C      0.372000000000     0.990233333333     0.648433333333    -0.003      
C        C      0.372740000000     0.667966666667     0.423700000000    -0.003      
C        C      0.367060000000     0.760766666667     0.491333333333    -0.003      
C        C      0.289720000000     0.787633333333     0.511233333333    -0.003      
C        C      0.386900000000     0.667100000000     0.376766666667    -0.003      
C        C      0.331960000000     0.798200000000     0.495600000000    -0.003      
C        C      0.341980000000     0.844200000000     0.484566666667    -0.003      
C        C      0.358740000000     0.990766666667     0.358533333333    -0.003      
C        C      0.228000000000     0.676433333333     0.351566666667    -0.003      
C        C      0.227260000000     0.998700000000     0.909633333333    -0.003      
C        C      0.232940000000     0.905900000000     0.842000000000    -0.003      
C        C      0.310280000000     0.879033333333     0.822100000000    -0.003      
C        C      0.213100000000     0.999566666667     0.956566666667    -0.003      
C        C      0.268040000000     0.868466666667     0.837733333333    -0.003      
C        C      0.258020000000     0.822466666667     0.848766666667    -0.003      
C        C      0.241260000000     0.675900000000     0.974800000000    -0.003      
C        C      0.372000000000     0.990233333333     0.981766666667    -0.003      
C        C      0.372740000000     0.667966666667     0.757033333333    -0.003      
C        C      0.367060000000     0.760766666667     0.824666666667    -0.003      
C        C      0.289720000000     0.787633333333     0.844566666667    -0.003      
C        C      0.386900000000     0.667100000000     0.710100000000    -0.003      
C        C      0.331960000000     0.798200000000     0.828933333333    -0.003      
C        C      0.341980000000     0.844200000000     0.817900000000    -0.003      
C        C      0.358740000000     0.990766666667     0.691866666667    -0.003      
C        C      0.228000000000     0.676433333333     0.684900000000    -0.003      
C        C      0.427260000000     0.332033333333     0.242966666667    -0.003      
C        C      0.432940000000     0.239233333333     0.175333333333    -0.003      
C        C      0.510280000000     0.212366666667     0.155433333333    -0.003      
C        C      0.413100000000     0.332900000000     0.289900000000    -0.003      
C        C      0.468040000000     0.201800000000     0.171066666667    -0.003      
C        C      0.458020000000     0.155800000000     0.182100000000    -0.003      
C        C      0.441260000000     0.009233333333     0.308133333333    -0.003      
C        C      0.572000000000     0.323566666667     0.315100000000    -0.003      
C        C      0.572740000000     0.001300000000     0.090366666667    -0.003      
C        C      0.567060000000     0.094100000000     0.158000000000    -0.003      
C        C      0.489720000000     0.120966666667     0.177900000000    -0.003      
C        C      0.586900000000     0.000433333333     0.043433333333    -0.003      
C        C      0.531960000000     0.131533333333     0.162266666667    -0.003      
C        C      0.541980000000     0.177533333333     0.151233333333    -0.003      
C        C      0.558740000000     0.324100000000     0.025200000000    -0.003      
C        C      0.428000000000     0.009766666667     0.018233333333    -0.003      
C        C      0.427260000000     0.332033333333     0.576300000000    -0.003      
C        C      0.432940000000     0.239233333333     0.508666666667    -0.003      
C        C      0.510280000000     0.212366666667     0.488766666667    -0.003      
C        C      0.413100000000     0.332900000000     0.623233333333    -0.003      
C        C      0.468040000000     0.201800000000     0.504400000000    -0.003      
C        C      0.458020000000     0.155800000000     0.515433333333    -0.003      
C        C      0.441260000000     0.009233333333     0.641466666667    -0.003      
C        C      0.572000000000     0.323566666667     0.648433333333    -0.003      
C        C      0.572740000000     0.001300000000     0.423700000000    -0.003      
C        C      0.567060000000     0.094100000000     0.491333333333    -0.003      
C        C      0.489720000000     0.120966666667     0.511233333333    -0.003      
C        C      0.586900000000     0.000433333333     0.376766666667    -0.003      
C        C      0.531960000000     0.131533333333     0.495600000000    -0.003      
C        C      0.541980000000     0.177533333333     0.484566666667    -0.003      
C        C      0.558740000000     0.324100000000     0.358533333333    -0.003      
C        C      0.428000000000     0.009766666667     0.351566666667    -0.003      
C        C      0.427260000000     0.332033333333     0.909633333333    -0.003      
C        C      0.432940000000     0.239233333333     0.842000000000    -0.003      
C        C      0.510280000000     0.212366666667     0.822100000000    -0.003      
C        C      0.413100000000     0.332900000000     0.956566666667    -0.003      
C        C      0.468040000000     0.201800000000     0.837733333333    -0.003      
C        C      0.458020000000     0.155800000000     0.848766666667    -0.003      
C        C      0.441260000000     0.009233333333     0.974800000000    -0.003      
C        C      0.572000000000     0.323566666667     0.981766666667    -0.003      
C        C      0.572740000000     0.001300000000     0.757033333333    -0.003      
C        C      0.567060000000     0.094100000000     0.824666666667    -0.003      
C        C      0.489720000000     0.120966666667     0.844566666667    -0.003      
C        C      0.586900000000     0.000433333333     0.710100000000    -0.003      
C        C      0.531960000000     0.131533333333     0.828933333333    -0.003      
C        C      0.541980000000     0.177533333333     0.817900000000    -0.003      
C        C      0.558740000000     0.324100000000     0.691866666667    -0.003      
C        C      0.428000000000     0.009766666667     0.684900000000    -0.003      
C        C      0.427260000000     0.665366666667     0.242966666667    -0.003      
C        C      0.432940000000     0.572566666667     0.175333333333    -0.003      
C        C      0.510280000000     0.545700000000     0.155433333333    -0.003      
C        C      0.413100000000     0.666233333333     0.289900000000    -0.003      
C        C      0.468040000000     0.535133333333     0.171066666667    -0.003      
C        C      0.458020000000     0.489133333333     0.182100000000    -0.003      
C        C      0.441260000000     0.342566666667     0.308133333333    -0.003      
C        C      0.572000000000     0.656900000000     0.315100000000    -0.003      
C        C      0.572740000000     0.334633333333     0.090366666667    -0.003      
C        C      0.567060000000     0.427433333333     0.158000000000    -0.003      
C        C      0.489720000000     0.454300000000     0.177900000000    -0.003      
C        C      0.586900000000     0.333766666667     0.043433333333    -0.003      
C        C      0.531960000000     0.464866666667     0.162266666667    -0.003      
C        C      0.541980000000     0.510866666667     0.151233333333    -0.003      
C        C      0.558740000000     0.657433333333     0.025200000000    -0.003      
C        C      0.428000000000     0.343100000000     0.018233333333    -0.003      
C        C      0.427260000000     0.665366666667     0.576300000000    -0.003      
C        C      0.432940000000     0.572566666667     0.508666666667    -0.003      
C        C      0.510280000000     0.545700000000     0.488766666667    -0.003      
C        C      0.413100000000     0.666233333333     0.623233333333    -0.003      
C        C      0.468040000000     0.535133333333     0.504400000000    -0.003      
C        C      0.458020000000     0.489133333333     0.515433333333    -0.003      
C        C      0.441260000000     0.342566666667     0.641466666667    -0.003      
C        C      0.572000000000     0.656900000000     0.648433333333    -0.003      
C        C      0.572740000000     0.334633333333     0.423700000000    -0.003      
C        C      0.567060000000     0.427433333333     0.491333333333    -0.003      
C        C      0.489720000000     0.454300000000     0.511233333333    -0.003      
C        C      0.586900000000     0.333766666667     0.376766666667    -0.003      
C        C      0.531960000000     0.464866666667     0.495600000000    -0.003      
C        C      0.541980000000     0.510866666667     0.484566666667    -0.003      
C        C      0.558740000000     0.657433333333     0.358533333333    -0.003      
C        C      0.428000000000     0.343100000000     0.351566666667    -0.003      
C        C      0.427260000000     0.665366666667     0.909633333333    -0.003      
C        C      0.432940000000     0.572566666667     0.842000000000    -0.003      
C        C      0.510280000000     0.545700000000     0.822100000000    -0.003      
C        C      0.413100000000     0.666233333333     0.956566666667    -0.003      
C        C      0.468040000000     0.535133333333     0.837733333333    -0.003      
C        C      0.458020000000     0.489133333333     0.848766666667    -0.003      
C        C      0.441260000000     0.342566666667     0.974800000000    -0.003      
C        C      0.572000000000     0.656900000000     0.981766666667    -0.003      
C        C      0.572740000000     0.334633333333     0.757033333333    -0.003      
C        C      0.567060000000     0.427433333333     0.824666666667    -0.003      
C        C      0.489720000000     0.454300000000     0.844566666667    -0.003      
C        C      0.586900000000     0.333766666667     0.710100000000    -0.003      
C        C      0.531960000000     0.464866666667     0.828933333333    -0.003      
C        C      0.541980000000     0.510866666667     0.817900000000    -0.003      
C        C      0.558740000000     0.657433333333     0.691866666667    -0.003      
C        C      0.428000000000     0.343100000000     0.684900000000    -0.003      
C        C      0.427260000000     0.998700000000     0.242966666667    -0.003      
C        C      0.432940000000     0.905900000000     0.175333333333    -0.003      
C        C      0.510280000000     0.879033333333     0.155433333333    -0.003      
C        C      0.413100000000     0.999566666667     0.289900000000    -0.003      
C        C      0.468040000000     0.868466666667     0.171066666667    -0.003      
C        C      0.458020000000     0.822466666667     0.182100000000    -0.003      
C        C      0.441260000000     0.675900000000     0.308133333333    -0.003      
C        C      0.572000000000     0.990233333333     0.315100000000    -0.003      
C        C      0.572740000000     0.667966666667     0.090366666667    -0.003      
C        C      0.567060000000     0.760766666667     0.158000000000    -0.003      
C        C      0.489720000000     0.787633333333     0.177900000000    -0.003      
C        C      0.586900000000     0.667100000000     0.043433333333    -0.003      
C        C      0.531960000000     0.798200000000     0.162266666667    -0.003      
C        C      0.541980000000     0.844200000000     0.151233333333    -0.003      
C        C      0.558740000000     0.990766666667     0.025200000000    -0.003      
C        C      0.428000000000     0.676433333333     0.018233333333    -0.003      
C        C      0.427260000000     0.998700000000     0.576300000000    -0.003      
C        C      0.432940000000     0.905900000000     0.508666666667    -0.003      
C        C      0.510280000000     0.879033333333     0.488766666667    -0.003      
C        C      0.413100000000     0.999566666667     0.623233333333    -0.003      
C        C      0.468040000000     0.868466666667     0.504400000000    -0.003      
C        C      0.458020000000     0.822466666667     0.515433333333    -0.003      
C        C      0.441260000000     0.675900000000     0.641466666667    -0.003      
C        C      0.572000000000     0.990233333333     0.648433333333    -0.003      
C        C      0.572740000000     0.667966666667     0.423700000000    -0.003      
C        C      0.567060000000     0.760766666667     0.491333333333    -0.003      
C        C      0.489720000000     0.787633333333     0.511233333333    -0.003      
C        C      0.586900000000     0.667100000000     0.376766666667    -0.003      
C        C      0.531960000000     0.798200000000     0.495600000000    -0.003      
C        C      0.541980000000     0.844200000000     0.484566666667    -0.003      
C        C      0.558740000000     0.990766666667     0.358533333333    -0.003      
C        C      0.428000000000     0.676433333333     0.351566666667    -0.003      
C        C      0.427260000000     0.998700000000     0.909633333333    -0.003      
C        C      0.432940000000     0.905900000000     0.842000000000    -0.003      
C        C      0.510280000000     0.879033333333     0.822100000000    -0.003      
C        C      0.413100000000     0.999566666667     0.956566666667    -0.003      
C        C      0.468040000000     0.868466666667     0.837733333333    -0.003      
C        C      0.458020000000     0.822466666667     0.848766666667    -0.003      
C        C      0.441260000000     0.675900000000     0.974800000000    -0.003      
C        C      0.572000000000     0.990233333333     0.981766666667    -0.003      
C        C      0.572740000000     0.667966666667     0.757033333333    -0.003      
C        C      0.567060000000     0.760766666667     0.824666666667    -0.003      
C        C      0.489720000000     0.787633333333     0.844566666667    -0.003      
C        C      0.586900000000     0.667100000000     0.710100000000    -0.003      
C        C      0.531960000000     0.798200000000     0.828933333333    -0.003      
C        C      0.541980000000     0.844200000000     0.817900000000    -0.003      
C        C      0.558740000000     0.990766666667     0.691866666667    -0.003      
C        C      0.428000000000     0.676433333333     0.684900000000    -0.003      
C        C      0.627260000000     0.332033333333     0.242966666667    -0.003      
C        C      0.632940000000     0.239233333333     0.175333333333    -0.003      
C        C      0.710280000000     0.212366666667     0.155433333333    -0.003      
C        C      0.613100000000     0.332900000000     0.289900000000    -0.003      
C        C      0.668040000000     0.201800000000     0.171066666667    -0.003      
C        C      0.658020000000     0.155800000000     0.182100000000    -0.003      
C        C      0.641260000000     0.009233333333     0.308133333333    -0.003      
C        C      0.772000000000     0.323566666667     0.315100000000    -0.003      
C        C      0.772740000000     0.001300000000     0.090366666667    -0.003      
C        C      0.767060000000     0.094100000000     0.158000000000    -0.003      
C        C      0.689720000000     0.120966666667     0.177900000000    -0.003      
C        C      0.786900000000     0.000433333333     0.043433333333    -0.003      
C        C      0.731960000000     0.131533333333     0.162266666667    -0.003      
C        C      0.741980000000     0.177533333333     0.151233333333    -0.003      
C        C      0.758740000000     0.324100000000     0.025200000000    -0.003      
C        C      0.628000000000     0.009766666667     0.018233333333    -0.003      
C        C      0.627260000000     0.332033333333     0.576300000000    -0.003      
C        C      0.632940000000     0.239233333333     0.508666666667    -0.003      
C        C      0.710280000000     0.212366666667     0.488766666667    -0.003      
C        C      0.613100000000     0.332900000000     0.623233333333    -0.003      
C        C      0.668040000000     0.201800000000     0.504400000000    -0.003      
C        C      0.658020000000     0.155800000000     0.515433333333    -0.003      
C        C      0.641260000000     0.009233333333     0.641466666667    -0.003      
C        C      0.772000000000     0.323566666667     0.648433333333    -0.003      
C        C      0.772740000000     0.001300000000     0.423700000000    -0.003      
C        C      0.767060000000     0.094100000000     0.491333333333    -0.003      
C        C      0.689720000000     0.120966666667     0.511233333333    -0.003      
C        C      0.786900000000     0.000433333333     0.376766666667    -0.003      
C        C      0.731960000000     0.131533333333     0.495600000000    -0.003      
C        C      0.741980000000     0.177533333333     0.484566666667    -0.003      
C        C      0.758740000000     0.324100000000     0.358533333333    -0.003      
C        C      0.628000000000     0.009766666667     0.351566666667    -0.003      
C        C      0.627260000000     0.332033333333     0.909633333333    -0.003      
C        C      0.632940000000     0.239233333333     0.842000000000    -0.003      
C        C      0.710280000000     0.212366666667     0.822100000000    -0.003      
C        C      0.613100000000     0.332900000000     0.956566666667    -0.003      
C        C      0.668040000000     0.201800000000     0.837733333333    -0.003      
C        C      0.658020000000     0.155800000000     0.848766666667    -0.003      
C        C      0.641260000000     0.009233333333     0.974800000000    -0.003      
C        C      0.772000000000     0.323566666667     0.981766666667    -0.003      
C        C      0.772740000000     0.001300000000     0.757033333333    -0.003      
C        C      0.767060000000     0.094100000000     0.824666666667    -0.003      
C        C      0.689720000000     0.120966666667     0.844566666667    -0.003      
C        C      0.786900000000     0.000433333333     0.710100000000    -0.003      
C        C      0.731960000000     0.131533333333     0.828933333333    -0.003      
C        C      0.741980000000     0.177533333333     0.817900000000    -0.003      
C        C      0.758740000000     0.324100000000     0.691866666667    -0.003      
C        C      0.628000000000     0.009766666667     0.684900000000    -0.003      
C        C      0.627260000000     0.665366666667     0.242966666667    -0.003      
C        C      0.632940000000     0.572566666667     0.175333333333    -0.003      
C        C      0.710280000000     0.545700000000     0.155433333333    -0.003      
C        C      0.613100000000     0.666233333333     0.289900000000    -0.003      
C        C      0.668040000000     0.535133333333     0.171066666667    -0.003      
C        C      0.658020000000     0.489133333333     0.182100000000    -0.003      
C        C      0.641260000000     0.342566666667     0.308133333333    -0.003      
C        C      0.772000000000     0.656900000000     0.315100000000    -0.003      
C        C      0.772740000000     0.334633333333     0.090366666667    -0.003      
C        C      0.767060000000     0.427433333333     0.158000000000    -0.003      
C        C      0.689720000000     0.454300000000     0.177900000000    -0.003      
C        C      0.786900000000     0.333766666667     0.043433333333    -0.003      
C        C      0.731960000000     0.464866666667     0.162266666667    -0.003      
C        C      0.741980000000     0.510866666667     0.151233333333    -0.003      
C        C      0.758740000000     0.657433333333     0.025200000000    -0.003      
C        C      0.628000000000     0.343100000000     0.018233333333    -0.003      
C        C      0.627260000000     0.665366666667     0.576300000000    -0.003      
C        C      0.632940000000     0.572566666667     0.508666666667    -0.003      
C        C      0.710280000000     0.545700000000     0.488766666667    -0.003      
C        C      0.613100000000     0.666233333333     0.623233333333    -0.003      
C        C      0.668040000000     0.535133333333     0.504400000000    -0.003      
C        C      0.658020000000     0.489133333333     0.515433333333    -0.003      
C        C      0.641260000000     0.342566666667     0.641466666667    -0.003      
C        C      0.772000000000     0.656900000000     0.648433333333    -0.003      
C        C      0.772740000000     0.334633333333     0.423700000000    -0.003      
C        C      0.767060000000     0.427433333333     0.491333333333    -0.003      
C        C      0.689720000000     0.454300000000     0.511233333333    -0.003      
C        C      0.786900000000     0.333766666667     0.376766666667    -0.003      
C        C      0.731960000000     0.464866666667     0.495600000000    -0.003      
C        C      0.741980000000     0.510866666667     0.484566666667    -0.003      
C        C      0.758740000000     0.657433333333     0.358533333333    -0.003      
C        C      0.628000000000     0.343100000000     0.351566666667    -0.003      
C        C      0.627260000000     0.665366666667     0.909633333333    -0.003      
C        C      0.632940000000     0.572566666667     0.842000000000    -0.003      
C        C      0.710280000000     0.545700000000     0.822100000000    -0.003      
C        C      0.613100000000     0.666233333333     0.956566666667    -0.003      
C        C      0.668040000000     0.535133333333     0.837733333333    -0.003      
C        C      0.658020000000     0.489133333333     0.848766666667    -0.003      
C        C      0.641260000000     0.342566666667     0.974800000000    -0.003      
C        C      0.772000000000     0.656900000000     0.981766666667    -0.003      
C        C      0.772740000000     0.334633333333     0.757033333333    -0.003      
C        C      0.767060000000     0.427433333333     0.824666666667    -0.003      
C        C      0.689720000000     0.454300000000     0.844566666667    -0.003      
C        C      0.786900000000     0.333766666667     0.710100000000    -0.003      
C        C      0.731960000000     0.464866666667     0.828933333333    -0.003      
C        C      0.741980000000     0.510866666667     0.817900000000    -0.003      
C        C      0.758740000000     0.657433333333     0.691866666667    -0.003      
C        C      0.628000000000     0.343100000000     0.684900000000    -0.003      
C        C      0.627260000000     0.998700000000     0.242966666667    -0.003      
C        C      0.632940000000     0.905900000000     0.175333333333    -0.003      
C        C      0.710280000000     0.879033333333     0.155433333333    -0.003      
C        C      0.613100000000     0.999566666667     0.289900000000    -0.003      
C        C      0.668040000000     0.868466666667     0.171066666667    -0.003      
C        C      0.658020000000     0.822466666667     0.182100000000    -0.003      
C        C      0.641260000000     0.675900000000     0.308133333333    -0.003      
C        C      0.772000000000     0.990233333333     0.315100000000    -0.003      
C        C      0.772740000000     0.667966666667     0.090366666667    -0.003      
C        C      0.767060000000     0.760766666667     0.158000000000    -0.003      
C        C      0.689720000000     0.787633333333     0.177900000000    -0.003      
C        C      0.786900000000     0.667100000000     0.043433333333    -0.003      
C        C      0.731960000000     0.798200000000     0.162266666667    -0.003      
C        C      0.741980000000     0.844200000000     0.151233333333    -0.003      
C        C      0.758740000000     0.990766666667     0.025200000000    -0.003      
C        C      0.628000000000     0.676433333333     0.018233333333    -0.003      
C        C      0.627260000000     0.998700000000     0.576300000000    -0.003      
C        C      0.632940000000     0.905900000000     0.508666666667    -0.003      
C        C      0.710280000000     0.879033333333     0.488766666667    -0.003      
C        C      0.613100000000     0.999566666667     0.623233333333    -0.003      
C        C      0.668040000000     0.868466666667     0.504400000000    -0.003      
C        C      0.658020000000     0.822466666667     0.515433333333    -0.003      
C        C      0.641260000000     0.675900000000     0.641466666667    -0.003      
C        C      0.772000000000     0.990233333333     0.648433333333    -0.003      
C        C      0.772740000000     0.667966666667     0.423700000000    -0.003      
C        C      0.767060000000     0.760766666667     0.491333333333    -0.003      
C        C      0.689720000000     0.787633333333     0.511233333333    -0.003      
C        C      0.786900000000     0.667100000000     0.376766666667    -0.003      
C        C      0.731960000000     0.798200000000     0.495600000000    -0.003      
C        C      0.741980000000     0.844200000000     0.484566666667    -0.003      
C        C      0.758740000000     0.990766666667     0.358533333333    -0.003      
C        C      0.628000000000     0.676433333333     0.351566666667    -0.003      
C        C      0.627260000000     0.998700000000     0.909633333333    -0.003      
C        C      0.632940000000     0.905900000000     0.842000000000    -0.003      
C        C      0.710280000000     0.879033333333     0.822100000000    -0.003      
C        C      0.613100000000     0.999566666667     0.956566666667    -0.003      
C        C      0.668040000000     0.868466666667     0.837733333333    -0.003      
C        C      0.658020000000     0.822466666667     0.848766666667    -0.003      
C        C      0.641260000000     0.675900000000     0.974800000000    -0.003      
C        C      0.772000000000     0.990233333333     0.981766666667    -0.003      
C        C      0.772740000000     0.667966666667     0.757033333333    -0.003      
C        C      0.767060000000     0.760766666667     0.824666666667    -0.003      
C        C      0.689720000000     0.787633333333     0.844566666667    -0.003      
C        C      0.786900000000     0.667100000000     0.710100000000    -0.003      
C        C      0.731960000000     0.798200000000     0.828933333333    -0.003      
C        C      0.741980000000     0.844200000000     0.817900000000    -0.003      
C        C      0.758740000000     0.990766666667     0.691866666667    -0.003      
C        C      0.628000000000     0.676433333333     0.684900000000    -0.003      
C        C      0.827260000000     0.332033333333     0.242966666667    -0.003      
C        C      0.832940000000     0.239233333333     0.175333333333    -0.003      
C        C      0.910280000000     0.212366666667     0.155433333333    -0.003      
C        C      0.813100000000     0.332900000000     0.289900000000    -0.003      
C        C      0.868040000000     0.201800000000     0.171066666667    -0.003      
C        C      0.858020000000     0.155800000000     0.182100000000    -0.003      
C        C      0.841260000000     0.009233333333     0.308133333333    -0.003      
C        C      0.972000000000     0.323566666667     0.315100000000    -0.003      
C        C      0.972740000000     0.001300000000     0.090366666667    -0.003      
C        C      0.967060000000     0.094100000000     0.158000000000    -0.003      
C        C      0.889720000000     0.120966666667     0.177900000000    -0.003      
C        C      0.986900000000     0.000433333333     0.043433333333    -0.003      
C        C      0.931960000000     0.131533333333     0.162266666667    -0.003      
C        C      0.941980000000     0.177533333333     0.151233333333    -0.003      
C        C      0.958740000000     0.324100000000     0.025200000000    -0.003      
C        C      0.828000000000     0.009766666667     0.018233333333    -0.003      
C        C      0.827260000000     0.332033333333     0.576300000000    -0.003      
C        C      0.832940000000     0.239233333333     0.508666666667    -0.003      
C        C      0.910280000000     0.212366666667     0.488766666667    -0.003      
C        C      0.813100000000     0.332900000000     0.623233333333    -0.003      
C        C      0.868040000000     0.201800000000     0.504400000000    -0.003      
C        C      0.858020000000     0.155800000000     0.515433333333    -0.003      
C        C      0.841260000000     0.009233333333     0.641466666667    -0.003      
C        C      0.972000000000     0.323566666667     0.648433333333    -0.003      
C        C      0.972740000000     0.001300000000     0.423700000000    -0.003      
C        C      0.967060000000     0.094100000000     0.491333333333    -0.003      
C        C      0.889720000000     0.120966666667     0.511233333333    -0.003      
C        C      0.986900000000     0.000433333333     0.376766666667    -0.003      
C        C      0.931960000000     0.131533333333     0.495600000000    -0.003      
C        C      0.941980000000     0.177533333333     0.484566666667    -0.003      
C        C      0.958740000000     0.324100000000     0.358533333333    -0.003      
C        C      0.828000000000     0.009766666667     0.351566666667    -0.003      
C        C      0.827260000000     0.332033333333     0.909633333333    -0.003      
C        C      0.832940000000     0.239233333333     0.842000000000    -0.003      
C        C      0.910280000000     0.212366666667     0.822100000000    -0.003      
C        C      0.813100000000     0.332900000000     0.956566666667    -0.003      
C        C      0.868040000000     0.201800000000     0.837733333333    -0.003      
C        C      0.858020000000     0.155800000000     0.848766666667    -0.003      
C        C      0.841260000000     0.009233333333     0.974800000000    -0.003      
C        C      0.972000000000     0.323566666667     0.981766666667    -0.003      
C        C      0.972740000000     0.001300000000     0.757033333333    -0.003      
C        C      0.967060000000     0.094100000000     0.824666666667    -0.003      
C        C      0.889720000000     0.120966666667     0.844566666667    -0.003      
C        C      0.986900000000     0.000433333333     0.710100000000    -0.003      
C        C      0.931960000000     0.131533333333     0.828933333333    -0.003      
C        C      0.941980000000     0.177533333333     0.817900000000    -0.003      
C        C      0.958740000000     0.324100000000     0.691866666667    -0.003      
C        C      0.828000000000     0.009766666667     0.684900000000    -0.003      
C        C      0.827260000000     0.665366666667     0.242966666667    -0.003      
C        C      0.832940000000     0.572566666667     0.175333333333    -0.003      
C        C      0.910280000000     0.545700000000     0.155433333333    -0.003      
C        C      0.813100000000     0.666233333333     0.289900000000    -0.003      
C        C      0.868040000000     0.535133333333     0.171066666667    -0.003      
C        C      0.858020000000     0.489133333333     0.182100000000    -0.003      
C        C      0.841260000000     0.342566666667     0.308133333333    -0.003      
C        C      0.972000000000     0.656900000000     0.315100000000    -0.003      
C        C      0.972740000000     0.334633333333     0.090366666667    -0.003      
C        C      0.967060000000     0.427433333333     0.158000000000    -0.003      
C        C      0.889720000000     0.454300000000     0.177900000000    -0.003      
C        C      0.986900000000     0.333766666667     0.043433333333    -0.003      
C        C      0.931960000000     0.464866666667     0.162266666667    -0.003      
C        C      0.941980000000     0.510866666667     0.151233333333    -0.003      
C        C      0.958740000000     0.657433333333     0.025200000000    -0.003      
C        C      0.828000000000     0.343100000000     0.018233333333    -0.003      
C        C      0.827260000000     0.665366666667     0.576300000000    -0.003      
C        C      0.832940000000     0.572566666667     0.508666666667    -0.003      
C        C      0.910280000000     0.545700000000     0.488766666667    -0.003      
C        C      0.813100000000     0.666233333333     0.623233333333    -0.003      
C        C      0.868040000000     0.535133333333     0.504400000000    -0.003      
C        C      0.858020000000     0.489133333333     0.515433333333    -0.003      
C        C      0.841260000000     0.342566666667     0.641466666667    -0.003      
C        C      0.972000000000     0.656900000000     0.648433333333    -0.003      
C        C      0.972740000000     0.334633333333     0.423700000000    -0.003      
C        C      0.967060000000     0.427433333333     0.491333333333    -0.003      
C        C      0.889720000000     0.454300000000     0.511233333333    -0.003      
C        C      0.986900000000     0.333766666667     0.376766666667    -0.003      
C        C      0.931960000000     0.464866666667     0.495600000000    -0.003      
C        C      0.941980000000     0.510866666667     0.484566666667    -0.003      
C        C      0.958740000000     0.657433333333     0.358533333333    -0.003      
C        C      0.828000000000     0.343100000000     0.351566666667    -0.003      
C        C      0.827260000000     0.665366666667     0.909633333333    -0.003      
C        C      0.832940000000     0.572566666667     0.842000000000    -0.003      
C        C      0.910280000000     0.545700000000     0.822100000000    -0.003      
C        C      0.813100000000     0.666233333333     0.956566666667    -0.003      
C        C      0.868040000000     0.535133333333     0.837733333333    -0.003      
C        C      0.858020000000     0.489133333333     0.848766666667    -0.003      
C        C      0.841260000000     0.342566666667     0.974800000000    -0.003      
C        C      0.972000000000     0.656900000000     0.981766666667    -0.003      
C        C      0.972740000000     0.334633333333     0.757033333333    -0.003      
C        C      0.967060000000     0.427433333333     0.824666666667    -0.003      
C        C      0.889720000000     0.454300000000     0.844566666667    -0.003      
C        C      0.986900000000     0.333766666667     0.710100000000    -0.003      
C        C      0.931960000000     0.464866666667     0.828933333333    -0.003      
C        C      0.941980000000     0.510866666667     0.817900000000    -0.003      
C        C      0.958740000000     0.657433333333     0.691866666667    -0.003      
C        C      0.828000000000     0.343100000000     0.684900000000    -0.003      
C        C      0.827260000000     0.998700000000     0.242966666667    -0.003      
C        C      0.832940000000     0.905900000000     0.175333333333    -0.003      
C        C      0.910280000000     0.879033333333     0.155433333333    -0.003      
C        C      0.813100000000     0.999566666667     0.289900000000    -0.003      
C        C      0.868040000000     0.868466666667     0.171066666667    -0.003      
C        C      0.858020000000     0.822466666667     0.182100000000    -0.003      
C        C      0.841260000000     0.675900000000     0.308133333333    -0.003      
C        C      0.972000000000     0.990233333333     0.315100000000    -0.003      
C        C      0.972740000000     0.667966666667     0.090366666667    -0.003      
C        C      0.967060000000     0.760766666667     0.158000000000    -0.003      
C        C      0.889720000000     0.787633333333     0.177900000000    -0.003      
C        C      0.986900000000     0.667100000000     0.043433333333    -0.003      
C        C      0.931960000000     0.798200000000     0.162266666667    -0.003      
C        C      0.941980000000     0.844200000000     0.151233333333    -0.003      
C        C      0.958740000000     0.990766666667     0.025200000000    -0.003      
C        C      0.828000000000     0.676433333333     0.018233333333    -0.003      
C        C      0.827260000000     0.998700000000     0.576300000000    -0.003      
C        C      0.832940000000     0.905900000000     0.508666666667    -0.003      
C        C      0.910280000000     0.879033333333     0.488766666667    -0.003      
C        C      0.813100000000     0.999566666667     0.623233333333    -0.003      
C        C      0.868040000000     0.868466666667     0.504400000000    -0.003      
C        C      0.858020000000     0.822466666667     0.515433333333    -0.003      
C        C      0.841260000000     0.675900000000     0.641466666667    -0.003      
C        C      0.972000000000     0.990233333333     0.648433333333    -0.003      
C        C      0.972740000000     0.667966666667     0.423700000000    -0.003      
C        C      0.967060000000     0.760766666667     0.491333333333    -0.003      
C        C      0.889720000000     0.787633333333     0.511233333333    -0.003      
C        C      0.986900000000     0.667100000000     0.376766666667    -0.003      
C        C      0.931960000000     0.798200000000     0.495600000000    -0.003      
C        C      0.941980000000     0.844200000000     0.484566666667    -0.003      
C        C      0.958740000000     0.990766666667     0.358533333333    -0.003      
C        C      0.828000000000     0.676433333333     0.351566666667    -0.003      
C        C      0.827260000000     0.998700000000     0.909633333333    -0.003      
C        C      0.832940000000     0.905900000000     0.842000000000    -0.003      
C        C      0.910280000000     0.879033333333     0.822100000000    -0.003      
C        C      0.813100000000     0.999566666667     0.956566666667    -0.003      
C        C      0.868040000000     0.868466666667     0.837733333333    -0.003      
C        C      0.858020000000     0.822466666667     0.848766666667    -0.003      
C        C      0.841260000000     0.675900000000     0.974800000000    -0.003      
C        C      0.972000000000     0.990233333333     0.981766666667    -0.003      
C        C      0.972740000000     0.667966666667     0.757033333333    -0.003      
C        C      0.967060000000     0.760766666667     0.824666666667    -0.003      
C        C      0.889720000000     0.787633333333     0.844566666667    -0.003      
C        C      0.986900000000     0.667100000000     0.710100000000    -0.003      
C        C      0.931960000000     0.798200000000     0.828933333333    -0.003      
C        C      0.941980000000     0.844200000000     0.817900000000    -0.003      
C        C      0.958740000000     0.990766666667     0.691866666667    -0.003      
C        C      0.828000000000     0.676433333333     0.684900000000    -0.003      
Cu       Cu     0.000000000000     0.000000000000     0.166666666667     0.019      
Cu       Cu     0.100000000000     0.000000000000     0.166666666667     0.019      
Cu       Cu     0.000000000000     0.000000000000     0.500000000000     0.019      
Cu       Cu     0.100000000000     0.000000000000     0.500000000000     0.019      
Cu       Cu     0.000000000000     0.000000000000     0.833333333333     0.019      
Cu       Cu     0.100000000000     0.000000000000     0.833333333333     0.019      
Cu       Cu     0.000000000000     0.333333333333     0.166666666667     0.019      
Cu       Cu     0.100000000000     0.333333333333     0.166666666667     0.019      
Cu       Cu     0.000000000000     0.333333333333     0.500000000000     0.019      
Cu       Cu     0.100000000000     0.333333333333     0.500000000000     0.019      
Cu       Cu     0.000000000000     0.333333333333     0.833333333333     0.019      
Cu       Cu     0.100000000000     0.333333333333     0.833333333333     0.019      
Cu       Cu     0.000000000000     0.666666666667     0.166666666667     0.019      
Cu       Cu     0.100000000000     0.666666666667     0.166666666667     0.019      
Cu       Cu     0.000000000000     0.666666666667     0.500000000000     0.019      
Cu       Cu     0.100000000000     0.666666666667     0.500000000000     0.019      
Cu       Cu     0.000000000000     0.666666666667     0.833333333333     0.019      
Cu       Cu     0.100000000000     0.666666666667     0.833333333333     0.019      
Cu       Cu     0.200000000000     0.000000000000     0.166666666667     0.019      
Cu       Cu     0.300000000000     0.000000000000     0.166666666667     0.019      
Cu       Cu     0.200000000000     0.000000000000     0.500000000000     0.019      
Cu       Cu     0.300000000000     0.000000000000     0.500000000000     0.019      
Cu       Cu     0.200000000000     0.000000000000     0.833333333333     0.019      
Cu       Cu     0.300000000000     0.000000000000     0.833333333333     0.019      
Cu       Cu     0.200000000000     0.333333333333     0.166666666667     0.019      
Cu       Cu     0.300000000000     0.333333333333     0.166666666667     0.019      
Cu       Cu     0.200000000000     0.333333333333     0.500000000000     0.019      
Cu       Cu     0.300000000000     0.333333333333     0.500000000000     0.019      
Cu       Cu     0.200000000000     0.333333333333     0.833333333333     0.019      
Cu       Cu     0.300000000000     0.333333333333     0.833333333333     0.019      
Cu       Cu     0.200000000000     0.666666666667     0.166666666667     0.019      
Cu       Cu     0.300000000000     0.666666666667     0.166666666667     0.019      
Cu       Cu     0.200000000000     0.666666666667     0.500000000000     0.019      
Cu       Cu     0.300000000000     0.666666666667     0.500000000000     0.019      
Cu       Cu     0.200000000000     0.666666666667     0.833333333333     0.019      
Cu       Cu     0.300000000000     0.666666666667     0.833333333333     0.019      
Cu       Cu     0.400000000000     0.000000000000     0.166666666667     0.019      
Cu       Cu     0.500000000000     0.000000000000     0.166666666667     0.019      
Cu       Cu     0.400000000000     0.000000000000     0.500000000000     0.019      
Cu       Cu     0.500000000000     0.000000000000     0.500000000000     0.019      
Cu       Cu     0.400000000000     0.000000000000     0.833333333333     0.019      
Cu       Cu     0.500000000000     0.000000000000     0.833333333333     0.019      
Cu       Cu     0.400000000000     0.333333333333     0.166666666667     0.019      
Cu       Cu     0.500000000000     0.333333333333     0.166666666667     0.019      
Cu       Cu     0.400000000000     0.333333333333     0.500000000000     0.019      
Cu       Cu     0.500000000000     0.333333333333     0.500000000000     0.019      
Cu       Cu     0.400000000000     0.333333333333     0.833333333333     0.019      
Cu       Cu     0.500000000000     0.333333333333     0.833333333333     0.019      
Cu       Cu     0.400000000000     0.666666666667     0.166666666667     0.019      
Cu       Cu     0.500000000000     0.666666666667     0.166666666667     0.019      
Cu       Cu     0.400000000000     0.666666666667     0.500000000000     0.019      
Cu       Cu     0.500000000000     0.666666666667     0.500000000000     0.019      
Cu       Cu     0.400000000000     0.666666666667     0.833333333333     0.019      
Cu       Cu     0.500000000000     0.666666666667     0.833333333333     0.019      
Cu       Cu     0.600000000000     0.000000000000     0.166666666667     0.019      
Cu       Cu     0.700000000000     0.000000000000     0.166666666667     0.019      
Cu       Cu     0.600000000000     0.000000000000     0.500000000000     0.019      
Cu       Cu     0.700000000000     0.000000000000     0.500000000000     0.019      
Cu       Cu     0.600000000000     0.000000000000     0.833333333333     0.019      
Cu       Cu     0.700000000000     0.000000000000     0.833333333333     0.019      
Cu       Cu     0.600000000000     0.333333333333     0.166666666667     0.019      
Cu       Cu     0.700000000000     0.333333333333     0.166666666667     0.019      
Cu       Cu     0.600000000000     0.333333333333     0.500000000000     0.019      
Cu       Cu     0.700000000000     0.333333333333     0.500000000000     0.019      
Cu       Cu     0.600000000000     0.333333333333     0.833333333333     0.019      
Cu       Cu     0.700000000000     0.333333333333     0.833333333333     0.019      
Cu       Cu     0.600000000000     0.666666666667     0.166666666667     0.019      
Cu       Cu     0.700000000000     0.666666666667     0.166666666667     0.019      
Cu       Cu     0.600000000000     0.666666666667     0.500000000000     0.019      
Cu       Cu     0.700000000000     0.666666666667     0.500000000000     0.019      
Cu       Cu     0.600000000000     0.666666666667     0.833333333333     0.019      
Cu       Cu     0.700000000000     0.666666666667     0.833333333333     0.019      
Cu       Cu     0.800000000000     0.000000000000     0.166666666667     0.019      
Cu       Cu     0.900000000000     0.000000000000     0.166666666667     0.019      
Cu       Cu     0.800000000000     0.000000000000     0.500000000000     0.019      
Cu       Cu     0.900000000000     0.000000000000     0.500000000000     0.019      
Cu       Cu     0.800000000000     0.000000000000     0.833333333333     0.019      
Cu       Cu     0.900000000000     0.000000000000     0.833333333333     0.019      
Cu       Cu     0.800000000000     0.333333333333     0.166666666667     0.019      
Cu       Cu     0.900000000000     0.333333333333     0.166666666667     0.019      
Cu       Cu     0.800000000000     0.333333333333     0.500000000000     0.019      
Cu       Cu     0.900000000000     0.333333333333     0.500000000000     0.019      
Cu       Cu     0.800000000000     0.333333333333     0.833333333333     0.019      
Cu       Cu     0.900000000000     0.333333333333     0.833333333333     0.019      
Cu       Cu     0.800000000000     0.666666666667     0.166666666667     0.019      
Cu       Cu     0.900000000000     0.666666666667     0.166666666667     0.019      
Cu       Cu     0.800000000000     0.666666666667     0.500000000000     0.019      
Cu       Cu     0.900000000000     0.666666666667     0.500000000000     0.019      
Cu       Cu     0.800000000000     0.666666666667     0.833333333333     0.019      
Cu       Cu     0.900000000000     0.666666666667     0.833333333333     0.019      
H        H      0.117340000000     0.243666666667     0.147633333333     0.322      
H        H      0.029240000000     0.148433333333     0.192533333333     0.322      
H        H      0.069560000000     0.015500000000     0.290933333333     0.322      
H        H      0.152760000000     0.316766666667     0.302766666667     0.322      
H        H      0.082660000000     0.089666666667     0.185700000000     0.322      
H        H      0.170760000000     0.184900000000     0.140800000000     0.322      
H        H      0.130440000000     0.317833333333     0.042400000000     0.322      
H        H      0.047240000000     0.016566666667     0.030566666667     0.322      
H        H      0.117340000000     0.243666666667     0.480966666667     0.322      
H        H      0.029240000000     0.148433333333     0.525866666667     0.322      
H        H      0.069560000000     0.015500000000     0.624266666667     0.322      
H        H      0.152760000000     0.316766666667     0.636100000000     0.322      
H        H      0.082660000000     0.089666666667     0.519033333333     0.322      
H        H      0.170760000000     0.184900000000     0.474133333333     0.322      
H        H      0.130440000000     0.317833333333     0.375733333333     0.322      
H        H      0.047240000000     0.016566666667     0.363900000000     0.322      
H        H      0.117340000000     0.243666666667     0.814300000000     0.322      
H        H      0.029240000000     0.148433333333     0.859200000000     0.322      
H        H      0.069560000000     0.015500000000     0.957600000000     0.322      
H        H      0.152760000000     0.316766666667     0.969433333333     0.322      
H        H      0.082660000000     0.089666666667     0.852366666667     0.322      
H        H      0.170760000000     0.184900000000     0.807466666667     0.322      
H        H      0.130440000000     0.317833333333     0.709066666667     0.322      
H        H      0.047240000000     0.016566666667     0.697233333333     0.322      
H        H      0.117340000000     0.577000000000     0.147633333333     0.322      
H        H      0.029240000000     0.481766666667     0.192533333333     0.322      
H        H      0.069560000000     0.348833333333     0.290933333333     0.322      
H        H      0.152760000000     0.650100000000     0.302766666667     0.322      
H        H      0.082660000000     0.423000000000     0.185700000000     0.322      
H        H      0.170760000000     0.518233333333     0.140800000000     0.322      
H        H      0.130440000000     0.651166666667     0.042400000000     0.322      
H        H      0.047240000000     0.349900000000     0.030566666667     0.322      
H        H      0.117340000000     0.577000000000     0.480966666667     0.322      
H        H      0.029240000000     0.481766666667     0.525866666667     0.322      
H        H      0.069560000000     0.348833333333     0.624266666667     0.322      
H        H      0.152760000000     0.650100000000     0.636100000000     0.322      
H        H      0.082660000000     0.423000000000     0.519033333333     0.322      
H        H      0.170760000000     0.518233333333     0.474133333333     0.322      
H        H      0.130440000000     0.651166666667     0.375733333333     0.322      
H        H      0.047240000000     0.349900000000     0.363900000000     0.322      
H        H      0.117340000000     0.577000000000     0.814300000000     0.322      
H        H      0.029240000000     0.481766666667     0.859200000000     0.322      
H        H      0.069560000000     0.348833333333     0.957600000000     0.322      
H        H      0.152760000000     0.650100000000     0.969433333333     0.322      
H        H      0.082660000000     0.423000000000     0.852366666667     0.322      
H        H      0.170760000000     0.518233333333     0.807466666667     0.322      
H        H      0.130440000000     0.651166666667     0.709066666667     0.322      
H        H      0.047240000000     0.349900000000     0.697233333333     0.322      
H        H      0.117340000000     0.910333333333     0.147633333333     0.322      
H        H      0.029240000000     0.815100000000     0.192533333333     0.322      
H        H      0.069560000000     0.682166666667     0.290933333333     0.322      
H        H      0.152760000000     0.983433333333     0.302766666667     0.322      
H        H      0.082660000000     0.756333333333     0.185700000000     0.322      
H        H      0.170760000000     0.851566666667     0.140800000000     0.322      
H        H      0.130440000000     0.984500000000     0.042400000000     0.322      
H        H      0.047240000000     0.683233333333     0.030566666667     0.322      
H        H      0.117340000000     0.910333333333     0.480966666667     0.322      
H        H      0.029240000000     0.815100000000     0.525866666667     0.322      
H        H      0.069560000000     0.682166666667     0.624266666667     0.322      
H        H      0.152760000000     0.983433333333     0.636100000000     0.322      
H        H      0.082660000000     0.756333333333     0.519033333333     0.322      
H        H      0.170760000000     0.851566666667     0.474133333333     0.322      
H        H      0.130440000000     0.984500000000     0.375733333333     0.322      
H        H      0.047240000000     0.683233333333     0.363900000000     0.322      
H        H      0.117340000000     0.910333333333     0.814300000000     0.322      
H        H      0.029240000000     0.815100000000     0.859200000000     0.322      
H        H      0.069560000000     0.682166666667     0.957600000000     0.322      
H        H      0.152760000000     0.983433333333     0.969433333333     0.322      
H        H      0.082660000000     0.756333333333     0.852366666667     0.322      
H        H      0.170760000000     0.851566666667     0.807466666667     0.322      
H        H      0.130440000000     0.984500000000     0.709066666667     0.322      
H        H      0.047240000000     0.683233333333     0.697233333333     0.322      
H        H      0.317340000000     0.243666666667     0.147633333333     0.322      
H        H      0.229240000000     0.148433333333     0.192533333333     0.322      
H        H      0.269560000000     0.015500000000     0.290933333333     0.322      
H        H      0.352760000000     0.316766666667     0.302766666667     0.322      
H        H      0.282660000000     0.089666666667     0.185700000000     0.322      
H        H      0.370760000000     0.184900000000     0.140800000000     0.322      
H        H      0.330440000000     0.317833333333     0.042400000000     0.322      
H        H      0.247240000000     0.016566666667     0.030566666667     0.322      
H        H      0.317340000000     0.243666666667     0.480966666667     0.322      
H        H      0.229240000000     0.148433333333     0.525866666667     0.322      
H        H      0.269560000000     0.015500000000     0.624266666667     0.322      
H        H      0.352760000000     0.316766666667     0.636100000000     0.322      
H        H      0.282660000000     0.089666666667     0.519033333333     0.322      
H        H      0.370760000000     0.184900000000     0.474133333333     0.322      
H        H      0.330440000000     0.317833333333     0.375733333333     0.322      
H        H      0.247240000000     0.016566666667     0.363900000000     0.322      
H        H      0.317340000000     0.243666666667     0.814300000000     0.322      
H        H      0.229240000000     0.148433333333     0.859200000000     0.322      
H        H      0.269560000000     0.015500000000     0.957600000000     0.322      
H        H      0.352760000000     0.316766666667     0.969433333333     0.322      
H        H      0.282660000000     0.089666666667     0.852366666667     0.322      
H        H      0.370760000000     0.184900000000     0.807466666667     0.322      
H        H      0.330440000000     0.317833333333     0.709066666667     0.322      
H        H      0.247240000000     0.016566666667     0.697233333333     0.322      
H        H      0.317340000000     0.577000000000     0.147633333333     0.322      
H        H      0.229240000000     0.481766666667     0.192533333333     0.322      
H        H      0.269560000000     0.348833333333     0.290933333333     0.322      
H        H      0.352760000000     0.650100000000     0.302766666667     0.322      
H        H      0.282660000000     0.423000000000     0.185700000000     0.322      
H        H      0.370760000000     0.518233333333     0.140800000000     0.322      
H        H      0.330440000000     0.651166666667     0.042400000000     0.322      
H        H      0.247240000000     0.349900000000     0.030566666667     0.322      
H        H      0.317340000000     0.577000000000     0.480966666667     0.322      
H        H      0.229240000000     0.481766666667     0.525866666667     0.322      
H        H      0.269560000000     0.348833333333     0.624266666667     0.322      
H        H      0.352760000000     0.650100000000     0.636100000000     0.322      
H        H      0.282660000000     0.423000000000     0.519033333333     0.322      
H        H      0.370760000000     0.518233333333     0.474133333333     0.322      
H        H      0.330440000000     0.651166666667     0.375733333333     0.322      
H        H      0.247240000000     0.349900000000     0.363900000000     0.322      
H        H      0.317340000000     0.577000000000     0.814300000000     0.322      
H        H      0.229240000000     0.481766666667     0.859200000000     0.322      
H        H      0.269560000000     0.348833333333     0.957600000000     0.322      
H        H      0.352760000000     0.650100000000     0.969433333333     0.322      
H        H      0.282660000000     0.423000000000     0.852366666667     0.322      
H        H      0.370760000000     0.518233333333     0.807466666667     0.322      
H        H      0.330440000000     0.651166666667     0.709066666667     0.322      
H        H      0.247240000000     0.349900000000     0.697233333333     0.322      
H        H      0.317340000000     0.910333333333     0.147633333333     0.322      
H        H      0.229240000000     0.815100000000     0.192533333333     0.322      
H        H      0.269560000000     0.682166666667     0.290933333333     0.322      
H        H      0.352760000000     0.983433333333     0.302766666667     0.322      
H        H      0.282660000000     0.756333333333     0.185700000000     0.322      
H        H      0.370760000000     0.851566666667     0.140800000000     0.322      
H        H      0.330440000000     0.984500000000     0.042400000000     0.322      
H        H      0.247240000000     0.683233333333     0.030566666667     0.322      
H        H      0.317340000000     0.910333333333     0.480966666667     0.322      
H        H      0.229240000000     0.815100000000     0.525866666667     0.322      
H        H      0.269560000000     0.682166666667     0.624266666667     0.322      
H        H      0.352760000000     0.983433333333     0.636100000000     0.322      
H        H      0.282660000000     0.756333333333     0.519033333333     0.322      
H        H      0.370760000000     0.851566666667     0.474133333333     0.322      
H        H      0.330440000000     0.984500000000     0.375733333333     0.322      
H        H      0.247240000000     0.683233333333     0.363900000000     0.322      
H        H      0.317340000000     0.910333333333     0.814300000000     0.322      
H        H      0.229240000000     0.815100000000     0.859200000000     0.322      
H        H      0.269560000000     0.682166666667     0.957600000000     0.322      
H        H      0.352760000000     0.983433333333     0.969433333333     0.322      
H        H      0.282660000000     0.756333333333     0.852366666667     0.322      
H        H      0.370760000000     0.851566666667     0.807466666667     0.322      
H        H      0.330440000000     0.984500000000     0.709066666667     0.322      
H        H      0.247240000000     0.683233333333     0.697233333333     0.322      
H        H      0.517340000000     0.243666666667     0.147633333333     0.322      
H        H      0.429240000000     0.148433333333     0.192533333333     0.322      
H        H      0.469560000000     0.015500000000     0.290933333333     0.322      
H        H      0.552760000000     0.316766666667     0.302766666667     0.322      
H        H      0.482660000000     0.089666666667     0.185700000000     0.322      
H        H      0.570760000000     0.184900000000     0.140800000000     0.322      
H        H      0.530440000000     0.317833333333     0.042400000000     0.322      
H        H      0.447240000000     0.016566666667     0.030566666667     0.322      
H        H      0.517340000000     0.243666666667     0.480966666667     0.322      
H        H      0.429240000000     0.148433333333     0.525866666667     0.322      
H        H      0.469560000000     0.015500000000     0.624266666667     0.322      
H        H      0.552760000000     0.316766666667     0.636100000000     0.322      
H        H      0.482660000000     0.089666666667     0.519033333333     0.322      
H        H      0.570760000000     0.184900000000     0.474133333333     0.322      
H        H      0.530440000000     0.317833333333     0.375733333333     0.322      
H        H      0.447240000000     0.016566666667     0.363900000000     0.322      
H        H      0.517340000000     0.243666666667     0.814300000000     0.322      
H        H      0.429240000000     0.148433333333     0.859200000000     0.322      
H        H      0.469560000000     0.015500000000     0.957600000000     0.322      
H        H      0.552760000000     0.316766666667     0.969433333333     0.322      
H        H      0.482660000000     0.089666666667     0.852366666667     0.322      
H        H      0.570760000000     0.184900000000     0.807466666667     0.322      
H        H      0.530440000000     0.317833333333     0.709066666667     0.322      
H        H      0.447240000000     0.016566666667     0.697233333333     0.322      
H        H      0.517340000000     0.577000000000     0.147633333333     0.322      
H        H      0.429240000000     0.481766666667     0.192533333333     0.322      
H        H      0.469560000000     0.348833333333     0.290933333333     0.322      
H        H      0.552760000000     0.650100000000     0.302766666667     0.322      
H        H      0.482660000000     0.423000000000     0.185700000000     0.322      
H        H      0.570760000000     0.518233333333     0.140800000000     0.322      
H        H      0.530440000000     0.651166666667     0.042400000000     0.322      
H        H      0.447240000000     0.349900000000     0.030566666667     0.322      
H        H      0.517340000000     0.577000000000     0.480966666667     0.322      
H        H      0.429240000000     0.481766666667     0.525866666667     0.322      
H        H      0.469560000000     0.348833333333     0.624266666667     0.322      
H        H      0.552760000000     0.650100000000     0.636100000000     0.322      
H        H      0.482660000000     0.423000000000     0.519033333333     0.322      
H        H      0.570760000000     0.518233333333     0.474133333333     0.322      
H        H      0.530440000000     0.651166666667     0.375733333333     0.322      
H        H      0.447240000000     0.349900000000     0.363900000000     0.322      
H        H      0.517340000000     0.577000000000     0.814300000000     0.322      
H        H      0.429240000000     0.481766666667     0.859200000000     0.322      
H        H      0.469560000000     0.348833333333     0.957600000000     0.322      
H        H      0.552760000000     0.650100000000     0.969433333333     0.322      
H        H      0.482660000000     0.423000000000     0.852366666667     0.322      
H        H      0.570760000000     0.518233333333     0.807466666667     0.322      
H        H      0.530440000000     0.651166666667     0.709066666667     0.322      
H        H      0.447240000000     0.349900000000     0.697233333333     0.322      
H        H      0.517340000000     0.910333333333     0.147633333333     0.322      
H        H      0.429240000000     0.815100000000     0.192533333333     0.322      
H        H      0.469560000000     0.682166666667     0.290933333333     0.322      
H        H      0.552760000000     0.983433333333     0.302766666667     0.322      
H        H      0.482660000000     0.756333333333     0.185700000000     0.322      
H        H      0.570760000000     0.851566666667     0.140800000000     0.322      
H        H      0.530440000000     0.984500000000     0.042400000000     0.322      
H        H      0.447240000000     0.683233333333     0.030566666667     0.322      
H        H      0.517340000000     0.910333333333     0.480966666667     0.322      
H        H      0.429240000000     0.815100000000     0.525866666667     0.322      
H        H      0.469560000000     0.682166666667     0.624266666667     0.322      
H        H      0.552760000000     0.983433333333     0.636100000000     0.322      
H        H      0.482660000000     0.756333333333     0.519033333333     0.322      
H        H      0.570760000000     0.851566666667     0.474133333333     0.322      
H        H      0.530440000000     0.984500000000     0.375733333333     0.322      
H        H      0.447240000000     0.683233333333     0.363900000000     0.322      
H        H      0.517340000000     0.910333333333     0.814300000000     0.322      
H        H      0.429240000000     0.815100000000     0.859200000000     0.322      
H        H      0.469560000000     0.682166666667     0.957600000000     0.322      
H        H      0.552760000000     0.983433333333     0.969433333333     0.322      
H        H      0.482660000000     0.756333333333     0.852366666667     0.322      
H        H      0.570760000000     0.851566666667     0.807466666667     0.322      
H        H      0.530440000000     0.984500000000     0.709066666667     0.322      
H        H      0.447240000000     0.683233333333     0.697233333333     0.322      
H        H      0.717340000000     0.243666666667     0.147633333333     0.322      
H        H      0.629240000000     0.148433333333     0.192533333333     0.322      
H        H      0.669560000000     0.015500000000     0.290933333333     0.322      
H        H      0.752760000000     0.316766666667     0.302766666667     0.322      
H        H      0.682660000000     0.089666666667     0.185700000000     0.322      
H        H      0.770760000000     0.184900000000     0.140800000000     0.322      
H        H      0.730440000000     0.317833333333     0.042400000000     0.322      
H        H      0.647240000000     0.016566666667     0.030566666667     0.322      
H        H      0.717340000000     0.243666666667     0.480966666667     0.322      
H        H      0.629240000000     0.148433333333     0.525866666667     0.322      
H        H      0.669560000000     0.015500000000     0.624266666667     0.322      
H        H      0.752760000000     0.316766666667     0.636100000000     0.322      
H        H      0.682660000000     0.089666666667     0.519033333333     0.322      
H        H      0.770760000000     0.184900000000     0.474133333333     0.322      
H        H      0.730440000000     0.317833333333     0.375733333333     0.322      
H        H      0.647240000000     0.016566666667     0.363900000000     0.322      
H        H      0.717340000000     0.243666666667     0.814300000000     0.322      
H        H      0.629240000000     0.148433333333     0.859200000000     0.322      
H        H      0.669560000000     0.015500000000     0.957600000000     0.322      
H        H      0.752760000000     0.316766666667     0.969433333333     0.322      
H        H      0.682660000000     0.089666666667     0.852366666667     0.322      
H        H      0.770760000000     0.184900000000     0.807466666667     0.322      
H        H      0.730440000000     0.317833333333     0.709066666667     0.322      
H        H      0.647240000000     0.016566666667     0.697233333333     0.322      
H        H      0.717340000000     0.577000000000     0.147633333333     0.322      
H        H      0.629240000000     0.481766666667     0.192533333333     0.322      
H        H      0.669560000000     0.348833333333     0.290933333333     0.322      
H        H      0.752760000000     0.650100000000     0.302766666667     0.322      
H        H      0.682660000000     0.423000000000     0.185700000000     0.322      
H        H      0.770760000000     0.518233333333     0.140800000000     0.322      
H        H      0.730440000000     0.651166666667     0.042400000000     0.322      
H        H      0.647240000000     0.349900000000     0.030566666667     0.322      
H        H      0.717340000000     0.577000000000     0.480966666667     0.322      
H        H      0.629240000000     0.481766666667     0.525866666667     0.322      
H        H      0.669560000000     0.348833333333     0.624266666667     0.322      
H        H      0.752760000000     0.650100000000     0.636100000000     0.322      
H        H      0.682660000000     0.423000000000     0.519033333333     0.322      
H        H      0.770760000000     0.518233333333     0.474133333333     0.322      
H        H      0.730440000000     0.651166666667     0.375733333333     0.322      
H        H      0.647240000000     0.349900000000     0.363900000000     0.322      
H        H      0.717340000000     0.577000000000     0.814300000000     0.322      
H        H      0.629240000000     0.481766666667     0.859200000000     0.322      
H        H      0.669560000000     0.348833333333     0.957600000000     0.322      
H        H      0.752760000000     0.650100000000     0.969433333333     0.322      
H        H      0.682660000000     0.423000000000     0.852366666667     0.322      
H        H      0.770760000000     0.518233333333     0.807466666667     0.322      
H        H      0.730440000000     0.651166666667     0.709066666667     0.322      
H        H      0.647240000000     0.349900000000     0.697233333333     0.322      
H        H      0.717340000000     0.910333333333     0.147633333333     0.322      
H        H      0.629240000000     0.815100000000     0.192533333333     0.322      
H        H      0.669560000000     0.682166666667     0.290933333333     0.322      
H        H      0.752760000000     0.983433333333     0.302766666667     0.322      
H        H      0.682660000000     0.756333333333     0.185700000000     0.322      
H        H      0.770760000000     0.851566666667     0.140800000000     0.322      
H        H      0.730440000000     0.984500000000     0.042400000000     0.322      
H        H      0.647240000000     0.683233333333     0.030566666667     0.322      
H        H      0.717340000000     0.910333333333     0.480966666667     0.322      
H        H      0.629240000000     0.815100000000     0.525866666667     0.322      
H        H      0.669560000000     0.682166666667     0.624266666667     0.322      
H        H      0.752760000000     0.983433333333     0.636100000000     0.322      
H        H      0.682660000000     0.756333333333     0.519033333333     0.322      
H        H      0.770760000000     0.851566666667     0.474133333333     0.322      
H        H      0.730440000000     0.984500000000     0.375733333333     0.322      
H        H      0.647240000000     0.683233333333     0.363900000000     0.322      
H        H      0.717340000000     0.910333333333     0.814300000000     0.322      
H        H      0.629240000000     0.815100000000     0.859200000000     0.322      
H        H      0.669560000000     0.682166666667     0.957600000000     0.322      
H        H      0.752760000000     0.983433333333     0.969433333333     0.322      
H        H      0.682660000000     0.756333333333     0.852366666667     0.322      
H        H      0.770760000000     0.851566666667     0.807466666667     0.322      
H        H      0.730440000000     0.984500000000     0.709066666667     0.322      
H        H      0.647240000000     0.683233333333     0.697233333333     0.322      
H        H      0.917340000000     0.243666666667     0.147633333333     0.322      
H        H      0.829240000000     0.148433333333     0.192533333333     0.322      
H        H      0.869560000000     0.015500000000     0.290933333333     0.322      
H        H      0.952760000000     0.316766666667     0.302766666667     0.322      
H        H      0.882660000000     0.089666666667     0.185700000000     0.322      
H        H      0.970760000000     0.184900000000     0.140800000000     0.322      
H        H      0.930440000000     0.317833333333     0.042400000000     0.322      
H        H      0.847240000000     0.016566666667     0.030566666667     0.322      
H        H      0.917340000000     0.243666666667     0.480966666667     0.322      
H        H      0.829240000000     0.148433333333     0.525866666667     0.322      
H        H      0.869560000000     0.015500000000     0.624266666667     0.322      
H        H      0.952760000000     0.316766666667     0.636100000000     0.322      
H        H      0.882660000000     0.089666666667     0.519033333333     0.322      
H        H      0.970760000000     0.184900000000     0.474133333333     0.322      
H        H      0.930440000000     0.317833333333     0.375733333333     0.322      
H        H      0.847240000000     0.016566666667     0.363900000000     0.322      
H        H      0.917340000000     0.243666666667     0.814300000000     0.322      
H        H      0.829240000000     0.148433333333     0.859200000000     0.322      
H        H      0.869560000000     0.015500000000     0.957600000000     0.322      
H        H      0.952760000000     0.316766666667     0.969433333333     0.322      
H        H      0.882660000000     0.089666666667     0.852366666667     0.322      
H        H      0.970760000000     0.184900000000     0.807466666667     0.322      
H        H      0.930440000000     0.317833333333     0.709066666667     0.322      
H        H      0.847240000000     0.016566666667     0.697233333333     0.322      
H        H      0.917340000000     0.577000000000     0.147633333333     0.322      
H        H      0.829240000000     0.481766666667     0.192533333333     0.322      
H        H      0.869560000000     0.348833333333     0.290933333333     0.322      
H        H      0.952760000000     0.650100000000     0.302766666667     0.322      
H        H      0.882660000000     0.423000000000     0.185700000000     0.322      
H        H      0.970760000000     0.518233333333     0.140800000000     0.322      
H        H      0.930440000000     0.651166666667     0.042400000000     0.322      
H        H      0.847240000000     0.349900000000     0.030566666667     0.322      
H        H      0.917340000000     0.577000000000     0.480966666667     0.322      
H        H      0.829240000000     0.481766666667     0.525866666667     0.322      
H        H      0.869560000000     0.348833333333     0.624266666667     0.322      
H        H      0.952760000000     0.650100000000     0.636100000000     0.322      
H        H      0.882660000000     0.423000000000     0.519033333333     0.322      
H        H      0.970760000000     0.518233333333     0.474133333333     0.322      
H        H      0.930440000000     0.651166666667     0.375733333333     0.322      
H        H      0.847240000000     0.349900000000     0.363900000000     0.322      
H        H      0.917340000000     0.577000000000     0.814300000000     0.322      
H        H      0.829240000000     0.481766666667     0.859200000000     0.322      
H        H      0.869560000000     0.348833333333     0.957600000000     0.322      
H        H      0.952760000000     0.650100000000     0.969433333333     0.322      
H        H      0.882660000000     0.423000000000     0.852366666667     0.322      
H        H      0.970760000000     0.518233333333     0.807466666667     0.322      
H        H      0.930440000000     0.651166666667     0.709066666667     0.322      
H        H      0.847240000000     0.349900000000     0.697233333333     0.322      
H        H      0.917340000000     0.910333333333     0.147633333333     0.322      
H        H      0.829240000000     0.815100000000     0.192533333333     0.322      
H        H      0.869560000000     0.682166666667     0.290933333333     0.322      
H        H      0.952760000000     0.983433333333     0.302766666667     0.322      
H        H      0.882660000000     0.756333333333     0.185700000000     0.322      
H        H      0.970760000000     0.851566666667     0.140800000000     0.322      
H        H      0.930440000000     0.984500000000     0.042400000000     0.322      
H        H      0.847240000000     0.683233333333     0.030566666667     0.322      
H        H      0.917340000000     0.910333333333     0.480966666667     0.322      
H        H      0.829240000000     0.815100000000     0.525866666667     0.322      
H        H      0.869560000000     0.682166666667     0.624266666667     0.322      
H        H      0.952760000000     0.983433333333     0.636100000000     0.322      
H        H      0.882660000000     0.756333333333     0.519033333333     0.322      
H        H      0.970760000000     0.851566666667     0.474133333333     0.322      
H        H      0.930440000000     0.984500000000     0.375733333333     0.322      
H        H      0.847240000000     0.683233333333     0.363900000000     0.322      
H        H      0.917340000000     0.910333333333     0.814300000000     0.322      
H        H      0.829240000000     0.815100000000     0.859200000000     0.322      
H        H      0.869560000000     0.682166666667     0.957600000000     0.322      
H        H      0.952760000000     0.983433333333     0.969433333333     0.322      
H        H      0.882660000000     0.756333333333     0.852366666667     0.322      
H        H      0.970760000000     0.851566666667     0.807466666667     0.322      
H        H      0.930440000000     0.984500000000     0.709066666667     0.322      
H        H      0.847240000000     0.683233333333     0.697233333333     0.322      
O        O      0.065840000000     0.004166666667     0.223266666667     0.41       
O        O      0.042600000000     0.277466666667     0.173566666667     0.41       
O        O      0.199540000000     0.326000000000     0.228033333333     0.41       
O        O      0.196220000000     0.230633333333     0.180166666667     0.41       
O        O      0.134160000000     0.329166666667     0.110066666667     0.41       
O        O      0.157400000000     0.055866666667     0.159766666667     0.41       
O        O      0.000460000000     0.007333333333     0.105300000000     0.41       
O        O      0.003780000000     0.102700000000     0.153166666667     0.41       
O        O      0.065840000000     0.004166666667     0.556600000000     0.41       
O        O      0.042600000000     0.277466666667     0.506900000000     0.41       
O        O      0.199540000000     0.326000000000     0.561366666667     0.41       
O        O      0.196220000000     0.230633333333     0.513500000000     0.41       
O        O      0.134160000000     0.329166666667     0.443400000000     0.41       
O        O      0.157400000000     0.055866666667     0.493100000000     0.41       
O        O      0.000460000000     0.007333333333     0.438633333333     0.41       
O        O      0.003780000000     0.102700000000     0.486500000000     0.41       
O        O      0.065840000000     0.004166666667     0.889933333333     0.41       
O        O      0.042600000000     0.277466666667     0.840233333333     0.41       
O        O      0.199540000000     0.326000000000     0.894700000000     0.41       
O        O      0.196220000000     0.230633333333     0.846833333333     0.41       
O        O      0.134160000000     0.329166666667     0.776733333333     0.41       
O        O      0.157400000000     0.055866666667     0.826433333333     0.41       
O        O      0.000460000000     0.007333333333     0.771966666667     0.41       
O        O      0.003780000000     0.102700000000     0.819833333333     0.41       
O        O      0.065840000000     0.337500000000     0.223266666667     0.41       
O        O      0.042600000000     0.610800000000     0.173566666667     0.41       
O        O      0.199540000000     0.659333333333     0.228033333333     0.41       
O        O      0.196220000000     0.563966666667     0.180166666667     0.41       
O        O      0.134160000000     0.662500000000     0.110066666667     0.41       
O        O      0.157400000000     0.389200000000     0.159766666667     0.41       
O        O      0.000460000000     0.340666666667     0.105300000000     0.41       
O        O      0.003780000000     0.436033333333     0.153166666667     0.41       
O        O      0.065840000000     0.337500000000     0.556600000000     0.41       
O        O      0.042600000000     0.610800000000     0.506900000000     0.41       
O        O      0.199540000000     0.659333333333     0.561366666667     0.41       
O        O      0.196220000000     0.563966666667     0.513500000000     0.41       
O        O      0.134160000000     0.662500000000     0.443400000000     0.41       
O        O      0.157400000000     0.389200000000     0.493100000000     0.41       
O        O      0.000460000000     0.340666666667     0.438633333333     0.41       
O        O      0.003780000000     0.436033333333     0.486500000000     0.41       
O        O      0.065840000000     0.337500000000     0.889933333333     0.41       
O        O      0.042600000000     0.610800000000     0.840233333333     0.41       
O        O      0.199540000000     0.659333333333     0.894700000000     0.41       
O        O      0.196220000000     0.563966666667     0.846833333333     0.41       
O        O      0.134160000000     0.662500000000     0.776733333333     0.41       
O        O      0.157400000000     0.389200000000     0.826433333333     0.41       
O        O      0.000460000000     0.340666666667     0.771966666667     0.41       
O        O      0.003780000000     0.436033333333     0.819833333333     0.41       
O        O      0.065840000000     0.670833333333     0.223266666667     0.41       
O        O      0.042600000000     0.944133333333     0.173566666667     0.41       
O        O      0.199540000000     0.992666666667     0.228033333333     0.41       
O        O      0.196220000000     0.897300000000     0.180166666667     0.41       
O        O      0.134160000000     0.995833333333     0.110066666667     0.41       
O        O      0.157400000000     0.722533333333     0.159766666667     0.41       
O        O      0.000460000000     0.674000000000     0.105300000000     0.41       
O        O      0.003780000000     0.769366666667     0.153166666667     0.41       
O        O      0.065840000000     0.670833333333     0.556600000000     0.41       
O        O      0.042600000000     0.944133333333     0.506900000000     0.41       
O        O      0.199540000000     0.992666666667     0.561366666667     0.41       
O        O      0.196220000000     0.897300000000     0.513500000000     0.41       
O        O      0.134160000000     0.995833333333     0.443400000000     0.41       
O        O      0.157400000000     0.722533333333     0.493100000000     0.41       
O        O      0.000460000000     0.674000000000     0.438633333333     0.41       
O        O      0.003780000000     0.769366666667     0.486500000000     0.41       
O        O      0.065840000000     0.670833333333     0.889933333333     0.41       
O        O      0.042600000000     0.944133333333     0.840233333333     0.41       
O        O      0.199540000000     0.992666666667     0.894700000000     0.41       
O        O      0.196220000000     0.897300000000     0.846833333333     0.41       
O        O      0.134160000000     0.995833333333     0.776733333333     0.41       
O        O      0.157400000000     0.722533333333     0.826433333333     0.41       
O        O      0.000460000000     0.674000000000     0.771966666667     0.41       
O        O      0.003780000000     0.769366666667     0.819833333333     0.41       
O        O      0.265840000000     0.004166666667     0.223266666667     0.41       
O        O      0.242600000000     0.277466666667     0.173566666667     0.41       
O        O      0.399540000000     0.326000000000     0.228033333333     0.41       
O        O      0.396220000000     0.230633333333     0.180166666667     0.41       
O        O      0.334160000000     0.329166666667     0.110066666667     0.41       
O        O      0.357400000000     0.055866666667     0.159766666667     0.41       
O        O      0.200460000000     0.007333333333     0.105300000000     0.41       
O        O      0.203780000000     0.102700000000     0.153166666667     0.41       
O        O      0.265840000000     0.004166666667     0.556600000000     0.41       
O        O      0.242600000000     0.277466666667     0.506900000000     0.41       
O        O      0.399540000000     0.326000000000     0.561366666667     0.41       
O        O      0.396220000000     0.230633333333     0.513500000000     0.41       
O        O      0.334160000000     0.329166666667     0.443400000000     0.41       
O        O      0.357400000000     0.055866666667     0.493100000000     0.41       
O        O      0.200460000000     0.007333333333     0.438633333333     0.41       
O        O      0.203780000000     0.102700000000     0.486500000000     0.41       
O        O      0.265840000000     0.004166666667     0.889933333333     0.41       
O        O      0.242600000000     0.277466666667     0.840233333333     0.41       
O        O      0.399540000000     0.326000000000     0.894700000000     0.41       
O        O      0.396220000000     0.230633333333     0.846833333333     0.41       
O        O      0.334160000000     0.329166666667     0.776733333333     0.41       
O        O      0.357400000000     0.055866666667     0.826433333333     0.41       
O        O      0.200460000000     0.007333333333     0.771966666667     0.41       
O        O      0.203780000000     0.102700000000     0.819833333333     0.41       
O        O      0.265840000000     0.337500000000     0.223266666667     0.41       
O        O      0.242600000000     0.610800000000     0.173566666667     0.41       
O        O      0.399540000000     0.659333333333     0.228033333333     0.41       
O        O      0.396220000000     0.563966666667     0.180166666667     0.41       
O        O      0.334160000000     0.662500000000     0.110066666667     0.41       
O        O      0.357400000000     0.389200000000     0.159766666667     0.41       
O        O      0.200460000000     0.340666666667     0.105300000000     0.41       
O        O      0.203780000000     0.436033333333     0.153166666667     0.41       
O        O      0.265840000000     0.337500000000     0.556600000000     0.41       
O        O      0.242600000000     0.610800000000     0.506900000000     0.41       
O        O      0.399540000000     0.659333333333     0.561366666667     0.41       
O        O      0.396220000000     0.563966666667     0.513500000000     0.41       
O        O      0.334160000000     0.662500000000     0.443400000000     0.41       
O        O      0.357400000000     0.389200000000     0.493100000000     0.41       
O        O      0.200460000000     0.340666666667     0.438633333333     0.41       
O        O      0.203780000000     0.436033333333     0.486500000000     0.41       
O        O      0.265840000000     0.337500000000     0.889933333333     0.41       
O        O      0.242600000000     0.610800000000     0.840233333333     0.41       
O        O      0.399540000000     0.659333333333     0.894700000000     0.41       
O        O      0.396220000000     0.563966666667     0.846833333333     0.41       
O        O      0.334160000000     0.662500000000     0.776733333333     0.41       
O        O      0.357400000000     0.389200000000     0.826433333333     0.41       
O        O      0.200460000000     0.340666666667     0.771966666667     0.41       
O        O      0.203780000000     0.436033333333     0.819833333333     0.41       
O        O      0.265840000000     0.670833333333     0.223266666667     0.41       
O        O      0.242600000000     0.944133333333     0.173566666667     0.41       
O        O      0.399540000000     0.992666666667     0.228033333333     0.41       
O        O      0.396220000000     0.897300000000     0.180166666667     0.41       
O        O      0.334160000000     0.995833333333     0.110066666667     0.41       
O        O      0.357400000000     0.722533333333     0.159766666667     0.41       
O        O      0.200460000000     0.674000000000     0.105300000000     0.41       
O        O      0.203780000000     0.769366666667     0.153166666667     0.41       
O        O      0.265840000000     0.670833333333     0.556600000000     0.41       
O        O      0.242600000000     0.944133333333     0.506900000000     0.41       
O        O      0.399540000000     0.992666666667     0.561366666667     0.41       
O        O      0.396220000000     0.897300000000     0.513500000000     0.41       
O        O      0.334160000000     0.995833333333     0.443400000000     0.41       
O        O      0.357400000000     0.722533333333     0.493100000000     0.41       
O        O      0.200460000000     0.674000000000     0.438633333333     0.41       
O        O      0.203780000000     0.769366666667     0.486500000000     0.41       
O        O      0.265840000000     0.670833333333     0.889933333333     0.41       
O        O      0.242600000000     0.944133333333     0.840233333333     0.41       
O        O      0.399540000000     0.992666666667     0.894700000000     0.41       
O        O      0.396220000000     0.897300000000     0.846833333333     0.41       
O        O      0.334160000000     0.995833333333     0.776733333333     0.41       
O        O      0.357400000000     0.722533333333     0.826433333333     0.41       
O        O      0.200460000000     0.674000000000     0.771966666667     0.41       
O        O      0.203780000000     0.769366666667     0.819833333333     0.41       
O        O      0.465840000000     0.004166666667     0.223266666667     0.41       
O        O      0.442600000000     0.277466666667     0.173566666667     0.41       
O        O      0.599540000000     0.326000000000     0.228033333333     0.41       
O        O      0.596220000000     0.230633333333     0.180166666667     0.41       
O        O      0.534160000000     0.329166666667     0.110066666667     0.41       
O        O      0.557400000000     0.055866666667     0.159766666667     0.41       
O        O      0.400460000000     0.007333333333     0.105300000000     0.41       
O        O      0.403780000000     0.102700000000     0.153166666667     0.41       
O        O      0.465840000000     0.004166666667     0.556600000000     0.41       
O        O      0.442600000000     0.277466666667     0.506900000000     0.41       
O        O      0.599540000000     0.326000000000     0.561366666667     0.41       
O        O      0.596220000000     0.230633333333     0.513500000000     0.41       
O        O      0.534160000000     0.329166666667     0.443400000000     0.41       
O        O      0.557400000000     0.055866666667     0.493100000000     0.41       
O        O      0.400460000000     0.007333333333     0.438633333333     0.41       
O        O      0.403780000000     0.102700000000     0.486500000000     0.41       
O        O      0.465840000000     0.004166666667     0.889933333333     0.41       
O        O      0.442600000000     0.277466666667     0.840233333333     0.41       
O        O      0.599540000000     0.326000000000     0.894700000000     0.41       
O        O      0.596220000000     0.230633333333     0.846833333333     0.41       
O        O      0.534160000000     0.329166666667     0.776733333333     0.41       
O        O      0.557400000000     0.055866666667     0.826433333333     0.41       
O        O      0.400460000000     0.007333333333     0.771966666667     0.41       
O        O      0.403780000000     0.102700000000     0.819833333333     0.41       
O        O      0.465840000000     0.337500000000     0.223266666667     0.41       
O        O      0.442600000000     0.610800000000     0.173566666667     0.41       
O        O      0.599540000000     0.659333333333     0.228033333333     0.41       
O        O      0.596220000000     0.563966666667     0.180166666667     0.41       
O        O      0.534160000000     0.662500000000     0.110066666667     0.41       
O        O      0.557400000000     0.389200000000     0.159766666667     0.41       
O        O      0.400460000000     0.340666666667     0.105300000000     0.41       
O        O      0.403780000000     0.436033333333     0.153166666667     0.41       
O        O      0.465840000000     0.337500000000     0.556600000000     0.41       
O        O      0.442600000000     0.610800000000     0.506900000000     0.41       
O        O      0.599540000000     0.659333333333     0.561366666667     0.41       
O        O      0.596220000000     0.563966666667     0.513500000000     0.41       
O        O      0.534160000000     0.662500000000     0.443400000000     0.41       
O        O      0.557400000000     0.389200000000     0.493100000000     0.41       
O        O      0.400460000000     0.340666666667     0.438633333333     0.41       
O        O      0.403780000000     0.436033333333     0.486500000000     0.41       
O        O      0.465840000000     0.337500000000     0.889933333333     0.41       
O        O      0.442600000000     0.610800000000     0.840233333333     0.41       
O        O      0.599540000000     0.659333333333     0.894700000000     0.41       
O        O      0.596220000000     0.563966666667     0.846833333333     0.41       
O        O      0.534160000000     0.662500000000     0.776733333333     0.41       
O        O      0.557400000000     0.389200000000     0.826433333333     0.41       
O        O      0.400460000000     0.340666666667     0.771966666667     0.41       
O        O      0.403780000000     0.436033333333     0.819833333333     0.41       
O        O      0.465840000000     0.670833333333     0.223266666667     0.41       
O        O      0.442600000000     0.944133333333     0.173566666667     0.41       
O        O      0.599540000000     0.992666666667     0.228033333333     0.41       
O        O      0.596220000000     0.897300000000     0.180166666667     0.41       
O        O      0.534160000000     0.995833333333     0.110066666667     0.41       
O        O      0.557400000000     0.722533333333     0.159766666667     0.41       
O        O      0.400460000000     0.674000000000     0.105300000000     0.41       
O        O      0.403780000000     0.769366666667     0.153166666667     0.41       
O        O      0.465840000000     0.670833333333     0.556600000000     0.41       
O        O      0.442600000000     0.944133333333     0.506900000000     0.41       
O        O      0.599540000000     0.992666666667     0.561366666667     0.41       
O        O      0.596220000000     0.897300000000     0.513500000000     0.41       
O        O      0.534160000000     0.995833333333     0.443400000000     0.41       
O        O      0.557400000000     0.722533333333     0.493100000000     0.41       
O        O      0.400460000000     0.674000000000     0.438633333333     0.41       
O        O      0.403780000000     0.769366666667     0.486500000000     0.41       
O        O      0.465840000000     0.670833333333     0.889933333333     0.41       
O        O      0.442600000000     0.944133333333     0.840233333333     0.41       
O        O      0.599540000000     0.992666666667     0.894700000000     0.41       
O        O      0.596220000000     0.897300000000     0.846833333333     0.41       
O        O      0.534160000000     0.995833333333     0.776733333333     0.41       
O        O      0.557400000000     0.722533333333     0.826433333333     0.41       
O        O      0.400460000000     0.674000000000     0.771966666667     0.41       
O        O      0.403780000000     0.769366666667     0.819833333333     0.41       
O        O      0.665840000000     0.004166666667     0.223266666667     0.41       
O        O      0.642600000000     0.277466666667     0.173566666667     0.41       
O        O      0.799540000000     0.326000000000     0.228033333333     0.41       
O        O      0.796220000000     0.230633333333     0.180166666667     0.41       
O        O      0.734160000000     0.329166666667     0.110066666667     0.41       
O        O      0.757400000000     0.055866666667     0.159766666667     0.41       
O        O      0.600460000000     0.007333333333     0.105300000000     0.41       
O        O      0.603780000000     0.102700000000     0.153166666667     0.41       
O        O      0.665840000000     0.004166666667     0.556600000000     0.41       
O        O      0.642600000000     0.277466666667     0.506900000000     0.41       
O        O      0.799540000000     0.326000000000     0.561366666667     0.41       
O        O      0.796220000000     0.230633333333     0.513500000000     0.41       
O        O      0.734160000000     0.329166666667     0.443400000000     0.41       
O        O      0.757400000000     0.055866666667     0.493100000000     0.41       
O        O      0.600460000000     0.007333333333     0.438633333333     0.41       
O        O      0.603780000000     0.102700000000     0.486500000000     0.41       
O        O      0.665840000000     0.004166666667     0.889933333333     0.41       
O        O      0.642600000000     0.277466666667     0.840233333333     0.41       
O        O      0.799540000000     0.326000000000     0.894700000000     0.41       
O        O      0.796220000000     0.230633333333     0.846833333333     0.41       
O        O      0.734160000000     0.329166666667     0.776733333333     0.41       
O        O      0.757400000000     0.055866666667     0.826433333333     0.41       
O        O      0.600460000000     0.007333333333     0.771966666667     0.41       
O        O      0.603780000000     0.102700000000     0.819833333333     0.41       
O        O      0.665840000000     0.337500000000     0.223266666667     0.41       
O        O      0.642600000000     0.610800000000     0.173566666667     0.41       
O        O      0.799540000000     0.659333333333     0.228033333333     0.41       
O        O      0.796220000000     0.563966666667     0.180166666667     0.41       
O        O      0.734160000000     0.662500000000     0.110066666667     0.41       
O        O      0.757400000000     0.389200000000     0.159766666667     0.41       
O        O      0.600460000000     0.340666666667     0.105300000000     0.41       
O        O      0.603780000000     0.436033333333     0.153166666667     0.41       
O        O      0.665840000000     0.337500000000     0.556600000000     0.41       
O        O      0.642600000000     0.610800000000     0.506900000000     0.41       
O        O      0.799540000000     0.659333333333     0.561366666667     0.41       
O        O      0.796220000000     0.563966666667     0.513500000000     0.41       
O        O      0.734160000000     0.662500000000     0.443400000000     0.41       
O        O      0.757400000000     0.389200000000     0.493100000000     0.41       
O        O      0.600460000000     0.340666666667     0.438633333333     0.41       
O        O      0.603780000000     0.436033333333     0.486500000000     0.41       
O        O      0.665840000000     0.337500000000     0.889933333333     0.41       
O        O      0.642600000000     0.610800000000     0.840233333333     0.41       
O        O      0.799540000000     0.659333333333     0.894700000000     0.41       
O        O      0.796220000000     0.563966666667     0.846833333333     0.41       
O        O      0.734160000000     0.662500000000     0.776733333333     0.41       
O        O      0.757400000000     0.389200000000     0.826433333333     0.41       
O        O      0.600460000000     0.340666666667     0.771966666667     0.41       
O        O      0.603780000000     0.436033333333     0.819833333333     0.41       
O        O      0.665840000000     0.670833333333     0.223266666667     0.41       
O        O      0.642600000000     0.944133333333     0.173566666667     0.41       
O        O      0.799540000000     0.992666666667     0.228033333333     0.41       
O        O      0.796220000000     0.897300000000     0.180166666667     0.41       
O        O      0.734160000000     0.995833333333     0.110066666667     0.41       
O        O      0.757400000000     0.722533333333     0.159766666667     0.41       
O        O      0.600460000000     0.674000000000     0.105300000000     0.41       
O        O      0.603780000000     0.769366666667     0.153166666667     0.41       
O        O      0.665840000000     0.670833333333     0.556600000000     0.41       
O        O      0.642600000000     0.944133333333     0.506900000000     0.41       
O        O      0.799540000000     0.992666666667     0.561366666667     0.41       
O        O      0.796220000000     0.897300000000     0.513500000000     0.41       
O        O      0.734160000000     0.995833333333     0.443400000000     0.41       
O        O      0.757400000000     0.722533333333     0.493100000000     0.41       
O        O      0.600460000000     0.674000000000     0.438633333333     0.41       
O        O      0.603780000000     0.769366666667     0.486500000000     0.41       
O        O      0.665840000000     0.670833333333     0.889933333333     0.41       
O        O      0.642600000000     0.944133333333     0.840233333333     0.41       
O        O      0.799540000000     0.992666666667     0.894700000000     0.41       
O        O      0.796220000000     0.897300000000     0.846833333333     0.41       
O        O      0.734160000000     0.995833333333     0.776733333333     0.41       
O        O      0.757400000000     0.722533333333     0.826433333333     0.41       
O        O      0.600460000000     0.674000000000     0.771966666667     0.41       
O        O      0.603780000000     0.769366666667     0.819833333333     0.41       
O        O      0.865840000000     0.004166666667     0.223266666667     0.41       
O        O      0.842600000000     0.277466666667     0.173566666667     0.41       
O        O      0.999540000000     0.326000000000     0.228033333333     0.41       
O        O      0.996220000000     0.230633333333     0.180166666667     0.41       
O        O      0.934160000000     0.329166666667     0.110066666667     0.41       
O        O      0.957400000000     0.055866666667     0.159766666667     0.41       
O        O      0.800460000000     0.007333333333     0.105300000000     0.41       
O        O      0.803780000000     0.102700000000     0.153166666667     0.41       
O        O      0.865840000000     0.004166666667     0.556600000000     0.41       
O        O      0.842600000000     0.277466666667     0.506900000000     0.41       
O        O      0.999540000000     0.326000000000     0.561366666667     0.41       
O        O      0.996220000000     0.230633333333     0.513500000000     0.41       
O        O      0.934160000000     0.329166666667     0.443400000000     0.41       
O        O      0.957400000000     0.055866666667     0.493100000000     0.41       
O        O      0.800460000000     0.007333333333     0.438633333333     0.41       
O        O      0.803780000000     0.102700000000     0.486500000000     0.41       
O        O      0.865840000000     0.004166666667     0.889933333333     0.41       
O        O      0.842600000000     0.277466666667     0.840233333333     0.41       
O        O      0.999540000000     0.326000000000     0.894700000000     0.41       
O        O      0.996220000000     0.230633333333     0.846833333333     0.41       
O        O      0.934160000000     0.329166666667     0.776733333333     0.41       
O        O      0.957400000000     0.055866666667     0.826433333333     0.41       
O        O      0.800460000000     0.007333333333     0.771966666667     0.41       
O        O      0.803780000000     0.102700000000     0.819833333333     0.41       
O        O      0.865840000000     0.337500000000     0.223266666667     0.41       
O        O      0.842600000000     0.610800000000     0.173566666667     0.41       
O        O      0.999540000000     0.659333333333     0.228033333333     0.41       
O        O      0.996220000000     0.563966666667     0.180166666667     0.41       
O        O      0.934160000000     0.662500000000     0.110066666667     0.41       
O        O      0.957400000000     0.389200000000     0.159766666667     0.41       
O        O      0.800460000000     0.340666666667     0.105300000000     0.41       
O        O      0.803780000000     0.436033333333     0.153166666667     0.41       
O        O      0.865840000000     0.337500000000     0.556600000000     0.41       
O        O      0.842600000000     0.610800000000     0.506900000000     0.41       
O        O      0.999540000000     0.659333333333     0.561366666667     0.41       
O        O      0.996220000000     0.563966666667     0.513500000000     0.41       
O        O      0.934160000000     0.662500000000     0.443400000000     0.41       
O        O      0.957400000000     0.389200000000     0.493100000000     0.41       
O        O      0.800460000000     0.340666666667     0.438633333333     0.41       
O        O      0.803780000000     0.436033333333     0.486500000000     0.41       
O        O      0.865840000000     0.337500000000     0.889933333333     0.41       
O        O      0.842600000000     0.610800000000     0.840233333333     0.41       
O        O      0.999540000000     0.659333333333     0.894700000000     0.41       
O        O      0.996220000000     0.563966666667     0.846833333333     0.41       
O        O      0.934160000000     0.662500000000     0.776733333333     0.41       
O        O      0.957400000000     0.389200000000     0.826433333333     0.41       
O        O      0.800460000000     0.340666666667     0.771966666667     0.41       
O        O      0.803780000000     0.436033333333     0.819833333333     0.41       
O        O      0.865840000000     0.670833333333     0.223266666667     0.41       
O        O      0.842600000000     0.944133333333     0.173566666667     0.41       
O        O      0.999540000000     0.992666666667     0.228033333333     0.41       
O        O      0.996220000000     0.897300000000     0.180166666667     0.41       
O        O      0.934160000000     0.995833333333     0.110066666667     0.41       
O        O      0.957400000000     0.722533333333     0.159766666667     0.41       
O        O      0.800460000000     0.674000000000     0.105300000000     0.41       
O        O      0.803780000000     0.769366666667     0.153166666667     0.41       
O        O      0.865840000000     0.670833333333     0.556600000000     0.41       
O        O      0.842600000000     0.944133333333     0.506900000000     0.41       
O        O      0.999540000000     0.992666666667     0.561366666667     0.41       
O        O      0.996220000000     0.897300000000     0.513500000000     0.41       
O        O      0.934160000000     0.995833333333     0.443400000000     0.41       
O        O      0.957400000000     0.722533333333     0.493100000000     0.41       
O        O      0.800460000000     0.674000000000     0.438633333333     0.41       
O        O      0.803780000000     0.769366666667     0.486500000000     0.41       
O        O      0.865840000000     0.670833333333     0.889933333333     0.41       
O        O      0.842600000000     0.944133333333     0.840233333333     0.41       
O        O      0.999540000000     0.992666666667     0.894700000000     0.41       
O        O      0.996220000000     0.897300000000     0.846833333333     0.41       
O        O      0.934160000000     0.995833333333     0.776733333333     0.41       
O        O      0.957400000000     0.722533333333     0.826433333333     0.41       
O        O      0.800460000000     0.674000000000     0.771966666667     0.41       
O        O      0.803780000000     0.769366666667     0.819833333333     0.41       


