data_WISVEB_clean

_audit_creation_method RASPA-1.0
_audit_creation_date 2025-9-8
_audit_author_name ''

_cell_length_a    14.319
_cell_length_b    14.49
_cell_length_c    22.598
_cell_angle_alpha 90
_cell_angle_beta  98.21
_cell_angle_gamma 90
_cell_volume      37125.1

_symmetry_cell_setting          triclinic
_symmetry_space_group_name_Hall 'P 1'
_symmetry_space_group_name_H-M  'P 1'
_symmetry_Int_Tables_number     1

_symmetry_equiv_pos_as_xyz 'x,y,z'

loop_
_atom_site_label
_atom_site_type_symbol
_atom_site_fract_x
_atom_site_fract_y
_atom_site_fract_z
_atom_site_charge
C        C      0.216250000000     0.212600000000     0.302850000000     0.027      
C        C      0.279700000000     0.477950000000     0.085850000000     0.027      
C        C      0.220300000000     0.227950000000     0.164150000000     0.027      
C        C      0.007500000000     0.011850000000     0.150510000000     0.027      
C        C      0.480750000000     0.479850000000     0.193485000000     0.027      
C        C      0.052700000000     0.198400000000     0.106550000000     0.027      
C        C      0.463650000000     0.291750000000     0.051000000000     0.027      
C        C      0.463650000000     0.458250000000     0.301000000000     0.027      
C        C      0.036350000000     0.208250000000     0.449000000000     0.027      
C        C      0.009150000000     0.239100000000     0.461750000000     0.027      
C        C      0.479200000000     0.480700000000     0.162890000000     0.027      
C        C      0.067200000000     0.174200000000     0.405150000000     0.027      
C        C      0.217950000000     0.215000000000     0.333650000000     0.027      
C        C      0.480750000000     0.270150000000     0.443485000000     0.027      
C        C      0.490850000000     0.489100000000     0.288250000000     0.027      
C        C      0.279700000000     0.272050000000     0.335850000000     0.027      
C        C      0.221400000000     0.019300000000     0.444750000000     0.027      
C        C      0.315150000000     0.315000000000     0.151500000000     0.027      
C        C      0.315150000000     0.435000000000     0.401500000000     0.027      
C        C      0.052700000000     0.051600000000     0.356550000000     0.027      
C        C      0.492500000000     0.261850000000     0.099490000000     0.027      
C        C      0.019250000000     0.020150000000     0.306515000000     0.027      
C        C      0.312700000000     0.444650000000     0.104100000000     0.027      
C        C      0.246450000000     0.010300000000     0.038850000000     0.027      
C        C      0.464300000000     0.457300000000     0.331600000000     0.027      
C        C      0.432800000000     0.325800000000     0.094850000000     0.027      
C        C      0.217950000000     0.035000000000     0.083650000000     0.027      
C        C      0.184850000000     0.185000000000     0.348500000000     0.027      
C        C      0.278600000000     0.480700000000     0.055250000000     0.027      
C        C      0.187300000000     0.055350000000     0.395900000000     0.027      
C        C      0.278600000000     0.269300000000     0.305250000000     0.027      
C        C      0.249550000000     0.244850000000     0.350150000000     0.027      
C        C      0.282050000000     0.465000000000     0.416350000000     0.027      
C        C      0.253550000000     0.260300000000     0.211150000000     0.027      
C        C      0.432800000000     0.424200000000     0.344850000000     0.027      
C        C      0.020800000000     0.230700000000     0.087110000000     0.027      
C        C      0.490850000000     0.260900000000     0.038250000000     0.027      
C        C      0.187300000000     0.194650000000     0.145900000000     0.027      
C        C      0.035700000000     0.042700000000     0.168400000000     0.027      
C        C      0.249550000000     0.005150000000     0.100150000000     0.027      
C        C      0.009150000000     0.010900000000     0.211750000000     0.027      
C        C      0.464300000000     0.292700000000     0.081600000000     0.027      
C        C      0.216250000000     0.037400000000     0.052850000000     0.027      
C        C      0.220300000000     0.022050000000     0.414150000000     0.027      
C        C      0.067200000000     0.075800000000     0.155150000000     0.027      
C        C      0.283750000000     0.287400000000     0.197150000000     0.027      
C        C      0.447300000000     0.301600000000     0.393450000000     0.027      
C        C      0.246450000000     0.239700000000     0.288850000000     0.027      
C        C      0.312700000000     0.305350000000     0.354100000000     0.027      
C        C      0.253550000000     0.489700000000     0.461150000000     0.027      
C        C      0.007500000000     0.238150000000     0.400510000000     0.027      
C        C      0.019250000000     0.229850000000     0.056515000000     0.027      
C        C      0.184850000000     0.065000000000     0.098500000000     0.027      
C        C      0.036350000000     0.041750000000     0.199000000000     0.027      
C        C      0.035700000000     0.207300000000     0.418400000000     0.027      
C        C      0.282050000000     0.285000000000     0.166350000000     0.027      
C        C      0.447300000000     0.448400000000     0.143450000000     0.027      
C        C      0.250450000000     0.255150000000     0.149850000000     0.027      
C        C      0.283750000000     0.462600000000     0.447150000000     0.027      
C        C      0.221400000000     0.230700000000     0.194750000000     0.027      
C        C      0.020800000000     0.019300000000     0.337110000000     0.027      
C        C      0.479200000000     0.269300000000     0.412890000000     0.027      
C        C      0.250450000000     0.494850000000     0.399850000000     0.027      
C        C      0.492500000000     0.488150000000     0.349490000000     0.027      
C        C      0.216250000000     0.212600000000     0.802850000000     0.027      
C        C      0.279700000000     0.477950000000     0.585850000000     0.027      
C        C      0.220300000000     0.227950000000     0.664150000000     0.027      
C        C      0.007500000000     0.011850000000     0.650510000000     0.027      
C        C      0.480750000000     0.479850000000     0.693485000000     0.027      
C        C      0.052700000000     0.198400000000     0.606550000000     0.027      
C        C      0.463650000000     0.291750000000     0.551000000000     0.027      
C        C      0.463650000000     0.458250000000     0.801000000000     0.027      
C        C      0.036350000000     0.208250000000     0.949000000000     0.027      
C        C      0.009150000000     0.239100000000     0.961750000000     0.027      
C        C      0.479200000000     0.480700000000     0.662890000000     0.027      
C        C      0.067200000000     0.174200000000     0.905150000000     0.027      
C        C      0.217950000000     0.215000000000     0.833650000000     0.027      
C        C      0.480750000000     0.270150000000     0.943485000000     0.027      
C        C      0.490850000000     0.489100000000     0.788250000000     0.027      
C        C      0.279700000000     0.272050000000     0.835850000000     0.027      
C        C      0.221400000000     0.019300000000     0.944750000000     0.027      
C        C      0.315150000000     0.315000000000     0.651500000000     0.027      
C        C      0.315150000000     0.435000000000     0.901500000000     0.027      
C        C      0.052700000000     0.051600000000     0.856550000000     0.027      
C        C      0.492500000000     0.261850000000     0.599490000000     0.027      
C        C      0.019250000000     0.020150000000     0.806515000000     0.027      
C        C      0.312700000000     0.444650000000     0.604100000000     0.027      
C        C      0.246450000000     0.010300000000     0.538850000000     0.027      
C        C      0.464300000000     0.457300000000     0.831600000000     0.027      
C        C      0.432800000000     0.325800000000     0.594850000000     0.027      
C        C      0.217950000000     0.035000000000     0.583650000000     0.027      
C        C      0.184850000000     0.185000000000     0.848500000000     0.027      
C        C      0.278600000000     0.480700000000     0.555250000000     0.027      
C        C      0.187300000000     0.055350000000     0.895900000000     0.027      
C        C      0.278600000000     0.269300000000     0.805250000000     0.027      
C        C      0.249550000000     0.244850000000     0.850150000000     0.027      
C        C      0.282050000000     0.465000000000     0.916350000000     0.027      
C        C      0.253550000000     0.260300000000     0.711150000000     0.027      
C        C      0.432800000000     0.424200000000     0.844850000000     0.027      
C        C      0.020800000000     0.230700000000     0.587110000000     0.027      
C        C      0.490850000000     0.260900000000     0.538250000000     0.027      
C        C      0.187300000000     0.194650000000     0.645900000000     0.027      
C        C      0.035700000000     0.042700000000     0.668400000000     0.027      
C        C      0.249550000000     0.005150000000     0.600150000000     0.027      
C        C      0.009150000000     0.010900000000     0.711750000000     0.027      
C        C      0.464300000000     0.292700000000     0.581600000000     0.027      
C        C      0.216250000000     0.037400000000     0.552850000000     0.027      
C        C      0.220300000000     0.022050000000     0.914150000000     0.027      
C        C      0.067200000000     0.075800000000     0.655150000000     0.027      
C        C      0.283750000000     0.287400000000     0.697150000000     0.027      
C        C      0.447300000000     0.301600000000     0.893450000000     0.027      
C        C      0.246450000000     0.239700000000     0.788850000000     0.027      
C        C      0.312700000000     0.305350000000     0.854100000000     0.027      
C        C      0.253550000000     0.489700000000     0.961150000000     0.027      
C        C      0.007500000000     0.238150000000     0.900510000000     0.027      
C        C      0.019250000000     0.229850000000     0.556515000000     0.027      
C        C      0.184850000000     0.065000000000     0.598500000000     0.027      
C        C      0.036350000000     0.041750000000     0.699000000000     0.027      
C        C      0.035700000000     0.207300000000     0.918400000000     0.027      
C        C      0.282050000000     0.285000000000     0.666350000000     0.027      
C        C      0.447300000000     0.448400000000     0.643450000000     0.027      
C        C      0.250450000000     0.255150000000     0.649850000000     0.027      
C        C      0.283750000000     0.462600000000     0.947150000000     0.027      
C        C      0.221400000000     0.230700000000     0.694750000000     0.027      
C        C      0.020800000000     0.019300000000     0.837110000000     0.027      
C        C      0.479200000000     0.269300000000     0.912890000000     0.027      
C        C      0.250450000000     0.494850000000     0.899850000000     0.027      
C        C      0.492500000000     0.488150000000     0.849490000000     0.027      
C        C      0.216250000000     0.712600000000     0.302850000000     0.027      
C        C      0.279700000000     0.977950000000     0.085850000000     0.027      
C        C      0.220300000000     0.727950000000     0.164150000000     0.027      
C        C      0.007500000000     0.511850000000     0.150510000000     0.027      
C        C      0.480750000000     0.979850000000     0.193485000000     0.027      
C        C      0.052700000000     0.698400000000     0.106550000000     0.027      
C        C      0.463650000000     0.791750000000     0.051000000000     0.027      
C        C      0.463650000000     0.958250000000     0.301000000000     0.027      
C        C      0.036350000000     0.708250000000     0.449000000000     0.027      
C        C      0.009150000000     0.739100000000     0.461750000000     0.027      
C        C      0.479200000000     0.980700000000     0.162890000000     0.027      
C        C      0.067200000000     0.674200000000     0.405150000000     0.027      
C        C      0.217950000000     0.715000000000     0.333650000000     0.027      
C        C      0.480750000000     0.770150000000     0.443485000000     0.027      
C        C      0.490850000000     0.989100000000     0.288250000000     0.027      
C        C      0.279700000000     0.772050000000     0.335850000000     0.027      
C        C      0.221400000000     0.519300000000     0.444750000000     0.027      
C        C      0.315150000000     0.815000000000     0.151500000000     0.027      
C        C      0.315150000000     0.935000000000     0.401500000000     0.027      
C        C      0.052700000000     0.551600000000     0.356550000000     0.027      
C        C      0.492500000000     0.761850000000     0.099490000000     0.027      
C        C      0.019250000000     0.520150000000     0.306515000000     0.027      
C        C      0.312700000000     0.944650000000     0.104100000000     0.027      
C        C      0.246450000000     0.510300000000     0.038850000000     0.027      
C        C      0.464300000000     0.957300000000     0.331600000000     0.027      
C        C      0.432800000000     0.825800000000     0.094850000000     0.027      
C        C      0.217950000000     0.535000000000     0.083650000000     0.027      
C        C      0.184850000000     0.685000000000     0.348500000000     0.027      
C        C      0.278600000000     0.980700000000     0.055250000000     0.027      
C        C      0.187300000000     0.555350000000     0.395900000000     0.027      
C        C      0.278600000000     0.769300000000     0.305250000000     0.027      
C        C      0.249550000000     0.744850000000     0.350150000000     0.027      
C        C      0.282050000000     0.965000000000     0.416350000000     0.027      
C        C      0.253550000000     0.760300000000     0.211150000000     0.027      
C        C      0.432800000000     0.924200000000     0.344850000000     0.027      
C        C      0.020800000000     0.730700000000     0.087110000000     0.027      
C        C      0.490850000000     0.760900000000     0.038250000000     0.027      
C        C      0.187300000000     0.694650000000     0.145900000000     0.027      
C        C      0.035700000000     0.542700000000     0.168400000000     0.027      
C        C      0.249550000000     0.505150000000     0.100150000000     0.027      
C        C      0.009150000000     0.510900000000     0.211750000000     0.027      
C        C      0.464300000000     0.792700000000     0.081600000000     0.027      
C        C      0.216250000000     0.537400000000     0.052850000000     0.027      
C        C      0.220300000000     0.522050000000     0.414150000000     0.027      
C        C      0.067200000000     0.575800000000     0.155150000000     0.027      
C        C      0.283750000000     0.787400000000     0.197150000000     0.027      
C        C      0.447300000000     0.801600000000     0.393450000000     0.027      
C        C      0.246450000000     0.739700000000     0.288850000000     0.027      
C        C      0.312700000000     0.805350000000     0.354100000000     0.027      
C        C      0.253550000000     0.989700000000     0.461150000000     0.027      
C        C      0.007500000000     0.738150000000     0.400510000000     0.027      
C        C      0.019250000000     0.729850000000     0.056515000000     0.027      
C        C      0.184850000000     0.565000000000     0.098500000000     0.027      
C        C      0.036350000000     0.541750000000     0.199000000000     0.027      
C        C      0.035700000000     0.707300000000     0.418400000000     0.027      
C        C      0.282050000000     0.785000000000     0.166350000000     0.027      
C        C      0.447300000000     0.948400000000     0.143450000000     0.027      
C        C      0.250450000000     0.755150000000     0.149850000000     0.027      
C        C      0.283750000000     0.962600000000     0.447150000000     0.027      
C        C      0.221400000000     0.730700000000     0.194750000000     0.027      
C        C      0.020800000000     0.519300000000     0.337110000000     0.027      
C        C      0.479200000000     0.769300000000     0.412890000000     0.027      
C        C      0.250450000000     0.994850000000     0.399850000000     0.027      
C        C      0.492500000000     0.988150000000     0.349490000000     0.027      
C        C      0.216250000000     0.712600000000     0.802850000000     0.027      
C        C      0.279700000000     0.977950000000     0.585850000000     0.027      
C        C      0.220300000000     0.727950000000     0.664150000000     0.027      
C        C      0.007500000000     0.511850000000     0.650510000000     0.027      
C        C      0.480750000000     0.979850000000     0.693485000000     0.027      
C        C      0.052700000000     0.698400000000     0.606550000000     0.027      
C        C      0.463650000000     0.791750000000     0.551000000000     0.027      
C        C      0.463650000000     0.958250000000     0.801000000000     0.027      
C        C      0.036350000000     0.708250000000     0.949000000000     0.027      
C        C      0.009150000000     0.739100000000     0.961750000000     0.027      
C        C      0.479200000000     0.980700000000     0.662890000000     0.027      
C        C      0.067200000000     0.674200000000     0.905150000000     0.027      
C        C      0.217950000000     0.715000000000     0.833650000000     0.027      
C        C      0.480750000000     0.770150000000     0.943485000000     0.027      
C        C      0.490850000000     0.989100000000     0.788250000000     0.027      
C        C      0.279700000000     0.772050000000     0.835850000000     0.027      
C        C      0.221400000000     0.519300000000     0.944750000000     0.027      
C        C      0.315150000000     0.815000000000     0.651500000000     0.027      
C        C      0.315150000000     0.935000000000     0.901500000000     0.027      
C        C      0.052700000000     0.551600000000     0.856550000000     0.027      
C        C      0.492500000000     0.761850000000     0.599490000000     0.027      
C        C      0.019250000000     0.520150000000     0.806515000000     0.027      
C        C      0.312700000000     0.944650000000     0.604100000000     0.027      
C        C      0.246450000000     0.510300000000     0.538850000000     0.027      
C        C      0.464300000000     0.957300000000     0.831600000000     0.027      
C        C      0.432800000000     0.825800000000     0.594850000000     0.027      
C        C      0.217950000000     0.535000000000     0.583650000000     0.027      
C        C      0.184850000000     0.685000000000     0.848500000000     0.027      
C        C      0.278600000000     0.980700000000     0.555250000000     0.027      
C        C      0.187300000000     0.555350000000     0.895900000000     0.027      
C        C      0.278600000000     0.769300000000     0.805250000000     0.027      
C        C      0.249550000000     0.744850000000     0.850150000000     0.027      
C        C      0.282050000000     0.965000000000     0.916350000000     0.027      
C        C      0.253550000000     0.760300000000     0.711150000000     0.027      
C        C      0.432800000000     0.924200000000     0.844850000000     0.027      
C        C      0.020800000000     0.730700000000     0.587110000000     0.027      
C        C      0.490850000000     0.760900000000     0.538250000000     0.027      
C        C      0.187300000000     0.694650000000     0.645900000000     0.027      
C        C      0.035700000000     0.542700000000     0.668400000000     0.027      
C        C      0.249550000000     0.505150000000     0.600150000000     0.027      
C        C      0.009150000000     0.510900000000     0.711750000000     0.027      
C        C      0.464300000000     0.792700000000     0.581600000000     0.027      
C        C      0.216250000000     0.537400000000     0.552850000000     0.027      
C        C      0.220300000000     0.522050000000     0.914150000000     0.027      
C        C      0.067200000000     0.575800000000     0.655150000000     0.027      
C        C      0.283750000000     0.787400000000     0.697150000000     0.027      
C        C      0.447300000000     0.801600000000     0.893450000000     0.027      
C        C      0.246450000000     0.739700000000     0.788850000000     0.027      
C        C      0.312700000000     0.805350000000     0.854100000000     0.027      
C        C      0.253550000000     0.989700000000     0.961150000000     0.027      
C        C      0.007500000000     0.738150000000     0.900510000000     0.027      
C        C      0.019250000000     0.729850000000     0.556515000000     0.027      
C        C      0.184850000000     0.565000000000     0.598500000000     0.027      
C        C      0.036350000000     0.541750000000     0.699000000000     0.027      
C        C      0.035700000000     0.707300000000     0.918400000000     0.027      
C        C      0.282050000000     0.785000000000     0.666350000000     0.027      
C        C      0.447300000000     0.948400000000     0.643450000000     0.027      
C        C      0.250450000000     0.755150000000     0.649850000000     0.027      
C        C      0.283750000000     0.962600000000     0.947150000000     0.027      
C        C      0.221400000000     0.730700000000     0.694750000000     0.027      
C        C      0.020800000000     0.519300000000     0.837110000000     0.027      
C        C      0.479200000000     0.769300000000     0.912890000000     0.027      
C        C      0.250450000000     0.994850000000     0.899850000000     0.027      
C        C      0.492500000000     0.988150000000     0.849490000000     0.027      
C        C      0.716250000000     0.212600000000     0.302850000000     0.027      
C        C      0.779700000000     0.477950000000     0.085850000000     0.027      
C        C      0.720300000000     0.227950000000     0.164150000000     0.027      
C        C      0.507500000000     0.011850000000     0.150510000000     0.027      
C        C      0.980750000000     0.479850000000     0.193485000000     0.027      
C        C      0.552700000000     0.198400000000     0.106550000000     0.027      
C        C      0.963650000000     0.291750000000     0.051000000000     0.027      
C        C      0.963650000000     0.458250000000     0.301000000000     0.027      
C        C      0.536350000000     0.208250000000     0.449000000000     0.027      
C        C      0.509150000000     0.239100000000     0.461750000000     0.027      
C        C      0.979200000000     0.480700000000     0.162890000000     0.027      
C        C      0.567200000000     0.174200000000     0.405150000000     0.027      
C        C      0.717950000000     0.215000000000     0.333650000000     0.027      
C        C      0.980750000000     0.270150000000     0.443485000000     0.027      
C        C      0.990850000000     0.489100000000     0.288250000000     0.027      
C        C      0.779700000000     0.272050000000     0.335850000000     0.027      
C        C      0.721400000000     0.019300000000     0.444750000000     0.027      
C        C      0.815150000000     0.315000000000     0.151500000000     0.027      
C        C      0.815150000000     0.435000000000     0.401500000000     0.027      
C        C      0.552700000000     0.051600000000     0.356550000000     0.027      
C        C      0.992500000000     0.261850000000     0.099490000000     0.027      
C        C      0.519250000000     0.020150000000     0.306515000000     0.027      
C        C      0.812700000000     0.444650000000     0.104100000000     0.027      
C        C      0.746450000000     0.010300000000     0.038850000000     0.027      
C        C      0.964300000000     0.457300000000     0.331600000000     0.027      
C        C      0.932800000000     0.325800000000     0.094850000000     0.027      
C        C      0.717950000000     0.035000000000     0.083650000000     0.027      
C        C      0.684850000000     0.185000000000     0.348500000000     0.027      
C        C      0.778600000000     0.480700000000     0.055250000000     0.027      
C        C      0.687300000000     0.055350000000     0.395900000000     0.027      
C        C      0.778600000000     0.269300000000     0.305250000000     0.027      
C        C      0.749550000000     0.244850000000     0.350150000000     0.027      
C        C      0.782050000000     0.465000000000     0.416350000000     0.027      
C        C      0.753550000000     0.260300000000     0.211150000000     0.027      
C        C      0.932800000000     0.424200000000     0.344850000000     0.027      
C        C      0.520800000000     0.230700000000     0.087110000000     0.027      
C        C      0.990850000000     0.260900000000     0.038250000000     0.027      
C        C      0.687300000000     0.194650000000     0.145900000000     0.027      
C        C      0.535700000000     0.042700000000     0.168400000000     0.027      
C        C      0.749550000000     0.005150000000     0.100150000000     0.027      
C        C      0.509150000000     0.010900000000     0.211750000000     0.027      
C        C      0.964300000000     0.292700000000     0.081600000000     0.027      
C        C      0.716250000000     0.037400000000     0.052850000000     0.027      
C        C      0.720300000000     0.022050000000     0.414150000000     0.027      
C        C      0.567200000000     0.075800000000     0.155150000000     0.027      
C        C      0.783750000000     0.287400000000     0.197150000000     0.027      
C        C      0.947300000000     0.301600000000     0.393450000000     0.027      
C        C      0.746450000000     0.239700000000     0.288850000000     0.027      
C        C      0.812700000000     0.305350000000     0.354100000000     0.027      
C        C      0.753550000000     0.489700000000     0.461150000000     0.027      
C        C      0.507500000000     0.238150000000     0.400510000000     0.027      
C        C      0.519250000000     0.229850000000     0.056515000000     0.027      
C        C      0.684850000000     0.065000000000     0.098500000000     0.027      
C        C      0.536350000000     0.041750000000     0.199000000000     0.027      
C        C      0.535700000000     0.207300000000     0.418400000000     0.027      
C        C      0.782050000000     0.285000000000     0.166350000000     0.027      
C        C      0.947300000000     0.448400000000     0.143450000000     0.027      
C        C      0.750450000000     0.255150000000     0.149850000000     0.027      
C        C      0.783750000000     0.462600000000     0.447150000000     0.027      
C        C      0.721400000000     0.230700000000     0.194750000000     0.027      
C        C      0.520800000000     0.019300000000     0.337110000000     0.027      
C        C      0.979200000000     0.269300000000     0.412890000000     0.027      
C        C      0.750450000000     0.494850000000     0.399850000000     0.027      
C        C      0.992500000000     0.488150000000     0.349490000000     0.027      
C        C      0.716250000000     0.212600000000     0.802850000000     0.027      
C        C      0.779700000000     0.477950000000     0.585850000000     0.027      
C        C      0.720300000000     0.227950000000     0.664150000000     0.027      
C        C      0.507500000000     0.011850000000     0.650510000000     0.027      
C        C      0.980750000000     0.479850000000     0.693485000000     0.027      
C        C      0.552700000000     0.198400000000     0.606550000000     0.027      
C        C      0.963650000000     0.291750000000     0.551000000000     0.027      
C        C      0.963650000000     0.458250000000     0.801000000000     0.027      
C        C      0.536350000000     0.208250000000     0.949000000000     0.027      
C        C      0.509150000000     0.239100000000     0.961750000000     0.027      
C        C      0.979200000000     0.480700000000     0.662890000000     0.027      
C        C      0.567200000000     0.174200000000     0.905150000000     0.027      
C        C      0.717950000000     0.215000000000     0.833650000000     0.027      
C        C      0.980750000000     0.270150000000     0.943485000000     0.027      
C        C      0.990850000000     0.489100000000     0.788250000000     0.027      
C        C      0.779700000000     0.272050000000     0.835850000000     0.027      
C        C      0.721400000000     0.019300000000     0.944750000000     0.027      
C        C      0.815150000000     0.315000000000     0.651500000000     0.027      
C        C      0.815150000000     0.435000000000     0.901500000000     0.027      
C        C      0.552700000000     0.051600000000     0.856550000000     0.027      
C        C      0.992500000000     0.261850000000     0.599490000000     0.027      
C        C      0.519250000000     0.020150000000     0.806515000000     0.027      
C        C      0.812700000000     0.444650000000     0.604100000000     0.027      
C        C      0.746450000000     0.010300000000     0.538850000000     0.027      
C        C      0.964300000000     0.457300000000     0.831600000000     0.027      
C        C      0.932800000000     0.325800000000     0.594850000000     0.027      
C        C      0.717950000000     0.035000000000     0.583650000000     0.027      
C        C      0.684850000000     0.185000000000     0.848500000000     0.027      
C        C      0.778600000000     0.480700000000     0.555250000000     0.027      
C        C      0.687300000000     0.055350000000     0.895900000000     0.027      
C        C      0.778600000000     0.269300000000     0.805250000000     0.027      
C        C      0.749550000000     0.244850000000     0.850150000000     0.027      
C        C      0.782050000000     0.465000000000     0.916350000000     0.027      
C        C      0.753550000000     0.260300000000     0.711150000000     0.027      
C        C      0.932800000000     0.424200000000     0.844850000000     0.027      
C        C      0.520800000000     0.230700000000     0.587110000000     0.027      
C        C      0.990850000000     0.260900000000     0.538250000000     0.027      
C        C      0.687300000000     0.194650000000     0.645900000000     0.027      
C        C      0.535700000000     0.042700000000     0.668400000000     0.027      
C        C      0.749550000000     0.005150000000     0.600150000000     0.027      
C        C      0.509150000000     0.010900000000     0.711750000000     0.027      
C        C      0.964300000000     0.292700000000     0.581600000000     0.027      
C        C      0.716250000000     0.037400000000     0.552850000000     0.027      
C        C      0.720300000000     0.022050000000     0.914150000000     0.027      
C        C      0.567200000000     0.075800000000     0.655150000000     0.027      
C        C      0.783750000000     0.287400000000     0.697150000000     0.027      
C        C      0.947300000000     0.301600000000     0.893450000000     0.027      
C        C      0.746450000000     0.239700000000     0.788850000000     0.027      
C        C      0.812700000000     0.305350000000     0.854100000000     0.027      
C        C      0.753550000000     0.489700000000     0.961150000000     0.027      
C        C      0.507500000000     0.238150000000     0.900510000000     0.027      
C        C      0.519250000000     0.229850000000     0.556515000000     0.027      
C        C      0.684850000000     0.065000000000     0.598500000000     0.027      
C        C      0.536350000000     0.041750000000     0.699000000000     0.027      
C        C      0.535700000000     0.207300000000     0.918400000000     0.027      
C        C      0.782050000000     0.285000000000     0.666350000000     0.027      
C        C      0.947300000000     0.448400000000     0.643450000000     0.027      
C        C      0.750450000000     0.255150000000     0.649850000000     0.027      
C        C      0.783750000000     0.462600000000     0.947150000000     0.027      
C        C      0.721400000000     0.230700000000     0.694750000000     0.027      
C        C      0.520800000000     0.019300000000     0.837110000000     0.027      
C        C      0.979200000000     0.269300000000     0.912890000000     0.027      
C        C      0.750450000000     0.494850000000     0.899850000000     0.027      
C        C      0.992500000000     0.488150000000     0.849490000000     0.027      
C        C      0.716250000000     0.712600000000     0.302850000000     0.027      
C        C      0.779700000000     0.977950000000     0.085850000000     0.027      
C        C      0.720300000000     0.727950000000     0.164150000000     0.027      
C        C      0.507500000000     0.511850000000     0.150510000000     0.027      
C        C      0.980750000000     0.979850000000     0.193485000000     0.027      
C        C      0.552700000000     0.698400000000     0.106550000000     0.027      
C        C      0.963650000000     0.791750000000     0.051000000000     0.027      
C        C      0.963650000000     0.958250000000     0.301000000000     0.027      
C        C      0.536350000000     0.708250000000     0.449000000000     0.027      
C        C      0.509150000000     0.739100000000     0.461750000000     0.027      
C        C      0.979200000000     0.980700000000     0.162890000000     0.027      
C        C      0.567200000000     0.674200000000     0.405150000000     0.027      
C        C      0.717950000000     0.715000000000     0.333650000000     0.027      
C        C      0.980750000000     0.770150000000     0.443485000000     0.027      
C        C      0.990850000000     0.989100000000     0.288250000000     0.027      
C        C      0.779700000000     0.772050000000     0.335850000000     0.027      
C        C      0.721400000000     0.519300000000     0.444750000000     0.027      
C        C      0.815150000000     0.815000000000     0.151500000000     0.027      
C        C      0.815150000000     0.935000000000     0.401500000000     0.027      
C        C      0.552700000000     0.551600000000     0.356550000000     0.027      
C        C      0.992500000000     0.761850000000     0.099490000000     0.027      
C        C      0.519250000000     0.520150000000     0.306515000000     0.027      
C        C      0.812700000000     0.944650000000     0.104100000000     0.027      
C        C      0.746450000000     0.510300000000     0.038850000000     0.027      
C        C      0.964300000000     0.957300000000     0.331600000000     0.027      
C        C      0.932800000000     0.825800000000     0.094850000000     0.027      
C        C      0.717950000000     0.535000000000     0.083650000000     0.027      
C        C      0.684850000000     0.685000000000     0.348500000000     0.027      
C        C      0.778600000000     0.980700000000     0.055250000000     0.027      
C        C      0.687300000000     0.555350000000     0.395900000000     0.027      
C        C      0.778600000000     0.769300000000     0.305250000000     0.027      
C        C      0.749550000000     0.744850000000     0.350150000000     0.027      
C        C      0.782050000000     0.965000000000     0.416350000000     0.027      
C        C      0.753550000000     0.760300000000     0.211150000000     0.027      
C        C      0.932800000000     0.924200000000     0.344850000000     0.027      
C        C      0.520800000000     0.730700000000     0.087110000000     0.027      
C        C      0.990850000000     0.760900000000     0.038250000000     0.027      
C        C      0.687300000000     0.694650000000     0.145900000000     0.027      
C        C      0.535700000000     0.542700000000     0.168400000000     0.027      
C        C      0.749550000000     0.505150000000     0.100150000000     0.027      
C        C      0.509150000000     0.510900000000     0.211750000000     0.027      
C        C      0.964300000000     0.792700000000     0.081600000000     0.027      
C        C      0.716250000000     0.537400000000     0.052850000000     0.027      
C        C      0.720300000000     0.522050000000     0.414150000000     0.027      
C        C      0.567200000000     0.575800000000     0.155150000000     0.027      
C        C      0.783750000000     0.787400000000     0.197150000000     0.027      
C        C      0.947300000000     0.801600000000     0.393450000000     0.027      
C        C      0.746450000000     0.739700000000     0.288850000000     0.027      
C        C      0.812700000000     0.805350000000     0.354100000000     0.027      
C        C      0.753550000000     0.989700000000     0.461150000000     0.027      
C        C      0.507500000000     0.738150000000     0.400510000000     0.027      
C        C      0.519250000000     0.729850000000     0.056515000000     0.027      
C        C      0.684850000000     0.565000000000     0.098500000000     0.027      
C        C      0.536350000000     0.541750000000     0.199000000000     0.027      
C        C      0.535700000000     0.707300000000     0.418400000000     0.027      
C        C      0.782050000000     0.785000000000     0.166350000000     0.027      
C        C      0.947300000000     0.948400000000     0.143450000000     0.027      
C        C      0.750450000000     0.755150000000     0.149850000000     0.027      
C        C      0.783750000000     0.962600000000     0.447150000000     0.027      
C        C      0.721400000000     0.730700000000     0.194750000000     0.027      
C        C      0.520800000000     0.519300000000     0.337110000000     0.027      
C        C      0.979200000000     0.769300000000     0.412890000000     0.027      
C        C      0.750450000000     0.994850000000     0.399850000000     0.027      
C        C      0.992500000000     0.988150000000     0.349490000000     0.027      
C        C      0.716250000000     0.712600000000     0.802850000000     0.027      
C        C      0.779700000000     0.977950000000     0.585850000000     0.027      
C        C      0.720300000000     0.727950000000     0.664150000000     0.027      
C        C      0.507500000000     0.511850000000     0.650510000000     0.027      
C        C      0.980750000000     0.979850000000     0.693485000000     0.027      
C        C      0.552700000000     0.698400000000     0.606550000000     0.027      
C        C      0.963650000000     0.791750000000     0.551000000000     0.027      
C        C      0.963650000000     0.958250000000     0.801000000000     0.027      
C        C      0.536350000000     0.708250000000     0.949000000000     0.027      
C        C      0.509150000000     0.739100000000     0.961750000000     0.027      
C        C      0.979200000000     0.980700000000     0.662890000000     0.027      
C        C      0.567200000000     0.674200000000     0.905150000000     0.027      
C        C      0.717950000000     0.715000000000     0.833650000000     0.027      
C        C      0.980750000000     0.770150000000     0.943485000000     0.027      
C        C      0.990850000000     0.989100000000     0.788250000000     0.027      
C        C      0.779700000000     0.772050000000     0.835850000000     0.027      
C        C      0.721400000000     0.519300000000     0.944750000000     0.027      
C        C      0.815150000000     0.815000000000     0.651500000000     0.027      
C        C      0.815150000000     0.935000000000     0.901500000000     0.027      
C        C      0.552700000000     0.551600000000     0.856550000000     0.027      
C        C      0.992500000000     0.761850000000     0.599490000000     0.027      
C        C      0.519250000000     0.520150000000     0.806515000000     0.027      
C        C      0.812700000000     0.944650000000     0.604100000000     0.027      
C        C      0.746450000000     0.510300000000     0.538850000000     0.027      
C        C      0.964300000000     0.957300000000     0.831600000000     0.027      
C        C      0.932800000000     0.825800000000     0.594850000000     0.027      
C        C      0.717950000000     0.535000000000     0.583650000000     0.027      
C        C      0.684850000000     0.685000000000     0.848500000000     0.027      
C        C      0.778600000000     0.980700000000     0.555250000000     0.027      
C        C      0.687300000000     0.555350000000     0.895900000000     0.027      
C        C      0.778600000000     0.769300000000     0.805250000000     0.027      
C        C      0.749550000000     0.744850000000     0.850150000000     0.027      
C        C      0.782050000000     0.965000000000     0.916350000000     0.027      
C        C      0.753550000000     0.760300000000     0.711150000000     0.027      
C        C      0.932800000000     0.924200000000     0.844850000000     0.027      
C        C      0.520800000000     0.730700000000     0.587110000000     0.027      
C        C      0.990850000000     0.760900000000     0.538250000000     0.027      
C        C      0.687300000000     0.694650000000     0.645900000000     0.027      
C        C      0.535700000000     0.542700000000     0.668400000000     0.027      
C        C      0.749550000000     0.505150000000     0.600150000000     0.027      
C        C      0.509150000000     0.510900000000     0.711750000000     0.027      
C        C      0.964300000000     0.792700000000     0.581600000000     0.027      
C        C      0.716250000000     0.537400000000     0.552850000000     0.027      
C        C      0.720300000000     0.522050000000     0.914150000000     0.027      
C        C      0.567200000000     0.575800000000     0.655150000000     0.027      
C        C      0.783750000000     0.787400000000     0.697150000000     0.027      
C        C      0.947300000000     0.801600000000     0.893450000000     0.027      
C        C      0.746450000000     0.739700000000     0.788850000000     0.027      
C        C      0.812700000000     0.805350000000     0.854100000000     0.027      
C        C      0.753550000000     0.989700000000     0.961150000000     0.027      
C        C      0.507500000000     0.738150000000     0.900510000000     0.027      
C        C      0.519250000000     0.729850000000     0.556515000000     0.027      
C        C      0.684850000000     0.565000000000     0.598500000000     0.027      
C        C      0.536350000000     0.541750000000     0.699000000000     0.027      
C        C      0.535700000000     0.707300000000     0.918400000000     0.027      
C        C      0.782050000000     0.785000000000     0.666350000000     0.027      
C        C      0.947300000000     0.948400000000     0.643450000000     0.027      
C        C      0.750450000000     0.755150000000     0.649850000000     0.027      
C        C      0.783750000000     0.962600000000     0.947150000000     0.027      
C        C      0.721400000000     0.730700000000     0.694750000000     0.027      
C        C      0.520800000000     0.519300000000     0.837110000000     0.027      
C        C      0.979200000000     0.769300000000     0.912890000000     0.027      
C        C      0.750450000000     0.994850000000     0.899850000000     0.027      
C        C      0.992500000000     0.988150000000     0.849490000000     0.027      
Cd       Cd     0.089385000000     0.066280000000     0.430005000000     0.028      
Cd       Cd     0.089385000000     0.183720000000     0.180005000000     0.028      
Cd       Cd     0.372070000000     0.375385000000     0.379415000000     0.028      
Cd       Cd     0.127930000000     0.124615000000     0.120585000000     0.028      
Cd       Cd     0.372070000000     0.374615000000     0.129415000000     0.028      
Cd       Cd     0.410615000000     0.316280000000     0.319995000000     0.028      
Cd       Cd     0.410615000000     0.433720000000     0.069995000000     0.028      
Cd       Cd     0.127930000000     0.125385000000     0.370585000000     0.028      
Cd       Cd     0.089385000000     0.066280000000     0.930005000000     0.028      
Cd       Cd     0.089385000000     0.183720000000     0.680005000000     0.028      
Cd       Cd     0.372070000000     0.375385000000     0.879415000000     0.028      
Cd       Cd     0.127930000000     0.124615000000     0.620585000000     0.028      
Cd       Cd     0.372070000000     0.374615000000     0.629415000000     0.028      
Cd       Cd     0.410615000000     0.316280000000     0.819995000000     0.028      
Cd       Cd     0.410615000000     0.433720000000     0.569995000000     0.028      
Cd       Cd     0.127930000000     0.125385000000     0.870585000000     0.028      
Cd       Cd     0.089385000000     0.566280000000     0.430005000000     0.028      
Cd       Cd     0.089385000000     0.683720000000     0.180005000000     0.028      
Cd       Cd     0.372070000000     0.875385000000     0.379415000000     0.028      
Cd       Cd     0.127930000000     0.624615000000     0.120585000000     0.028      
Cd       Cd     0.372070000000     0.874615000000     0.129415000000     0.028      
Cd       Cd     0.410615000000     0.816280000000     0.319995000000     0.028      
Cd       Cd     0.410615000000     0.933720000000     0.069995000000     0.028      
Cd       Cd     0.127930000000     0.625385000000     0.370585000000     0.028      
Cd       Cd     0.089385000000     0.566280000000     0.930005000000     0.028      
Cd       Cd     0.089385000000     0.683720000000     0.680005000000     0.028      
Cd       Cd     0.372070000000     0.875385000000     0.879415000000     0.028      
Cd       Cd     0.127930000000     0.624615000000     0.620585000000     0.028      
Cd       Cd     0.372070000000     0.874615000000     0.629415000000     0.028      
Cd       Cd     0.410615000000     0.816280000000     0.819995000000     0.028      
Cd       Cd     0.410615000000     0.933720000000     0.569995000000     0.028      
Cd       Cd     0.127930000000     0.625385000000     0.870585000000     0.028      
Cd       Cd     0.589385000000     0.066280000000     0.430005000000     0.028      
Cd       Cd     0.589385000000     0.183720000000     0.180005000000     0.028      
Cd       Cd     0.872070000000     0.375385000000     0.379415000000     0.028      
Cd       Cd     0.627930000000     0.124615000000     0.120585000000     0.028      
Cd       Cd     0.872070000000     0.374615000000     0.129415000000     0.028      
Cd       Cd     0.910615000000     0.316280000000     0.319995000000     0.028      
Cd       Cd     0.910615000000     0.433720000000     0.069995000000     0.028      
Cd       Cd     0.627930000000     0.125385000000     0.370585000000     0.028      
Cd       Cd     0.589385000000     0.066280000000     0.930005000000     0.028      
Cd       Cd     0.589385000000     0.183720000000     0.680005000000     0.028      
Cd       Cd     0.872070000000     0.375385000000     0.879415000000     0.028      
Cd       Cd     0.627930000000     0.124615000000     0.620585000000     0.028      
Cd       Cd     0.872070000000     0.374615000000     0.629415000000     0.028      
Cd       Cd     0.910615000000     0.316280000000     0.819995000000     0.028      
Cd       Cd     0.910615000000     0.433720000000     0.569995000000     0.028      
Cd       Cd     0.627930000000     0.125385000000     0.870585000000     0.028      
Cd       Cd     0.589385000000     0.566280000000     0.430005000000     0.028      
Cd       Cd     0.589385000000     0.683720000000     0.180005000000     0.028      
Cd       Cd     0.872070000000     0.875385000000     0.379415000000     0.028      
Cd       Cd     0.627930000000     0.624615000000     0.120585000000     0.028      
Cd       Cd     0.872070000000     0.874615000000     0.129415000000     0.028      
Cd       Cd     0.910615000000     0.816280000000     0.319995000000     0.028      
Cd       Cd     0.910615000000     0.933720000000     0.069995000000     0.028      
Cd       Cd     0.627930000000     0.625385000000     0.370585000000     0.028      
Cd       Cd     0.589385000000     0.566280000000     0.930005000000     0.028      
Cd       Cd     0.589385000000     0.683720000000     0.680005000000     0.028      
Cd       Cd     0.872070000000     0.875385000000     0.879415000000     0.028      
Cd       Cd     0.627930000000     0.624615000000     0.620585000000     0.028      
Cd       Cd     0.872070000000     0.874615000000     0.629415000000     0.028      
Cd       Cd     0.910615000000     0.816280000000     0.819995000000     0.028      
Cd       Cd     0.910615000000     0.933720000000     0.569995000000     0.028      
Cd       Cd     0.627930000000     0.625385000000     0.870585000000     0.028      
H        H      0.037300000000     0.041650000000     0.297900000000     0.026      
H        H      0.200900000000     0.213050000000     0.204300000000     0.026      
H        H      0.492400000000     0.262050000000     0.120050000000     0.026      
H        H      0.007600000000     0.012050000000     0.129950000000     0.026      
H        H      0.299100000000     0.286950000000     0.295700000000     0.026      
H        H      0.492400000000     0.487950000000     0.370050000000     0.026      
H        H      0.194950000000     0.192950000000     0.291650000000     0.026      
H        H      0.250600000000     0.246700000000     0.370800000000     0.026      
H        H      0.462700000000     0.458350000000     0.202100000000     0.026      
H        H      0.007600000000     0.237950000000     0.379950000000     0.026      
H        H      0.200900000000     0.036950000000     0.454300000000     0.026      
H        H      0.444550000000     0.312250000000     0.039000000000     0.026      
H        H      0.249400000000     0.253300000000     0.129200000000     0.026      
H        H      0.444550000000     0.437750000000     0.289000000000     0.026      
H        H      0.299100000000     0.463050000000     0.045700000000     0.026      
H        H      0.037300000000     0.208350000000     0.047900000000     0.026      
H        H      0.250600000000     0.003300000000     0.120800000000     0.026      
H        H      0.194950000000     0.057050000000     0.041650000000     0.026      
H        H      0.305050000000     0.307050000000     0.208350000000     0.026      
H        H      0.462700000000     0.291650000000     0.452100000000     0.026      
H        H      0.055450000000     0.062250000000     0.211000000000     0.026      
H        H      0.055450000000     0.187750000000     0.461000000000     0.026      
H        H      0.305050000000     0.442950000000     0.458350000000     0.026      
H        H      0.249400000000     0.496700000000     0.379200000000     0.026      
H        H      0.037300000000     0.041650000000     0.797900000000     0.026      
H        H      0.200900000000     0.213050000000     0.704300000000     0.026      
H        H      0.492400000000     0.262050000000     0.620050000000     0.026      
H        H      0.007600000000     0.012050000000     0.629950000000     0.026      
H        H      0.299100000000     0.286950000000     0.795700000000     0.026      
H        H      0.492400000000     0.487950000000     0.870050000000     0.026      
H        H      0.194950000000     0.192950000000     0.791650000000     0.026      
H        H      0.250600000000     0.246700000000     0.870800000000     0.026      
H        H      0.462700000000     0.458350000000     0.702100000000     0.026      
H        H      0.007600000000     0.237950000000     0.879950000000     0.026      
H        H      0.200900000000     0.036950000000     0.954300000000     0.026      
H        H      0.444550000000     0.312250000000     0.539000000000     0.026      
H        H      0.249400000000     0.253300000000     0.629200000000     0.026      
H        H      0.444550000000     0.437750000000     0.789000000000     0.026      
H        H      0.299100000000     0.463050000000     0.545700000000     0.026      
H        H      0.037300000000     0.208350000000     0.547900000000     0.026      
H        H      0.250600000000     0.003300000000     0.620800000000     0.026      
H        H      0.194950000000     0.057050000000     0.541650000000     0.026      
H        H      0.305050000000     0.307050000000     0.708350000000     0.026      
H        H      0.462700000000     0.291650000000     0.952100000000     0.026      
H        H      0.055450000000     0.062250000000     0.711000000000     0.026      
H        H      0.055450000000     0.187750000000     0.961000000000     0.026      
H        H      0.305050000000     0.442950000000     0.958350000000     0.026      
H        H      0.249400000000     0.496700000000     0.879200000000     0.026      
H        H      0.037300000000     0.541650000000     0.297900000000     0.026      
H        H      0.200900000000     0.713050000000     0.204300000000     0.026      
H        H      0.492400000000     0.762050000000     0.120050000000     0.026      
H        H      0.007600000000     0.512050000000     0.129950000000     0.026      
H        H      0.299100000000     0.786950000000     0.295700000000     0.026      
H        H      0.492400000000     0.987950000000     0.370050000000     0.026      
H        H      0.194950000000     0.692950000000     0.291650000000     0.026      
H        H      0.250600000000     0.746700000000     0.370800000000     0.026      
H        H      0.462700000000     0.958350000000     0.202100000000     0.026      
H        H      0.007600000000     0.737950000000     0.379950000000     0.026      
H        H      0.200900000000     0.536950000000     0.454300000000     0.026      
H        H      0.444550000000     0.812250000000     0.039000000000     0.026      
H        H      0.249400000000     0.753300000000     0.129200000000     0.026      
H        H      0.444550000000     0.937750000000     0.289000000000     0.026      
H        H      0.299100000000     0.963050000000     0.045700000000     0.026      
H        H      0.037300000000     0.708350000000     0.047900000000     0.026      
H        H      0.250600000000     0.503300000000     0.120800000000     0.026      
H        H      0.194950000000     0.557050000000     0.041650000000     0.026      
H        H      0.305050000000     0.807050000000     0.208350000000     0.026      
H        H      0.462700000000     0.791650000000     0.452100000000     0.026      
H        H      0.055450000000     0.562250000000     0.211000000000     0.026      
H        H      0.055450000000     0.687750000000     0.461000000000     0.026      
H        H      0.305050000000     0.942950000000     0.458350000000     0.026      
H        H      0.249400000000     0.996700000000     0.379200000000     0.026      
H        H      0.037300000000     0.541650000000     0.797900000000     0.026      
H        H      0.200900000000     0.713050000000     0.704300000000     0.026      
H        H      0.492400000000     0.762050000000     0.620050000000     0.026      
H        H      0.007600000000     0.512050000000     0.629950000000     0.026      
H        H      0.299100000000     0.786950000000     0.795700000000     0.026      
H        H      0.492400000000     0.987950000000     0.870050000000     0.026      
H        H      0.194950000000     0.692950000000     0.791650000000     0.026      
H        H      0.250600000000     0.746700000000     0.870800000000     0.026      
H        H      0.462700000000     0.958350000000     0.702100000000     0.026      
H        H      0.007600000000     0.737950000000     0.879950000000     0.026      
H        H      0.200900000000     0.536950000000     0.954300000000     0.026      
H        H      0.444550000000     0.812250000000     0.539000000000     0.026      
H        H      0.249400000000     0.753300000000     0.629200000000     0.026      
H        H      0.444550000000     0.937750000000     0.789000000000     0.026      
H        H      0.299100000000     0.963050000000     0.545700000000     0.026      
H        H      0.037300000000     0.708350000000     0.547900000000     0.026      
H        H      0.250600000000     0.503300000000     0.620800000000     0.026      
H        H      0.194950000000     0.557050000000     0.541650000000     0.026      
H        H      0.305050000000     0.807050000000     0.708350000000     0.026      
H        H      0.462700000000     0.791650000000     0.952100000000     0.026      
H        H      0.055450000000     0.562250000000     0.711000000000     0.026      
H        H      0.055450000000     0.687750000000     0.961000000000     0.026      
H        H      0.305050000000     0.942950000000     0.958350000000     0.026      
H        H      0.249400000000     0.996700000000     0.879200000000     0.026      
H        H      0.537300000000     0.041650000000     0.297900000000     0.026      
H        H      0.700900000000     0.213050000000     0.204300000000     0.026      
H        H      0.992400000000     0.262050000000     0.120050000000     0.026      
H        H      0.507600000000     0.012050000000     0.129950000000     0.026      
H        H      0.799100000000     0.286950000000     0.295700000000     0.026      
H        H      0.992400000000     0.487950000000     0.370050000000     0.026      
H        H      0.694950000000     0.192950000000     0.291650000000     0.026      
H        H      0.750600000000     0.246700000000     0.370800000000     0.026      
H        H      0.962700000000     0.458350000000     0.202100000000     0.026      
H        H      0.507600000000     0.237950000000     0.379950000000     0.026      
H        H      0.700900000000     0.036950000000     0.454300000000     0.026      
H        H      0.944550000000     0.312250000000     0.039000000000     0.026      
H        H      0.749400000000     0.253300000000     0.129200000000     0.026      
H        H      0.944550000000     0.437750000000     0.289000000000     0.026      
H        H      0.799100000000     0.463050000000     0.045700000000     0.026      
H        H      0.537300000000     0.208350000000     0.047900000000     0.026      
H        H      0.750600000000     0.003300000000     0.120800000000     0.026      
H        H      0.694950000000     0.057050000000     0.041650000000     0.026      
H        H      0.805050000000     0.307050000000     0.208350000000     0.026      
H        H      0.962700000000     0.291650000000     0.452100000000     0.026      
H        H      0.555450000000     0.062250000000     0.211000000000     0.026      
H        H      0.555450000000     0.187750000000     0.461000000000     0.026      
H        H      0.805050000000     0.442950000000     0.458350000000     0.026      
H        H      0.749400000000     0.496700000000     0.379200000000     0.026      
H        H      0.537300000000     0.041650000000     0.797900000000     0.026      
H        H      0.700900000000     0.213050000000     0.704300000000     0.026      
H        H      0.992400000000     0.262050000000     0.620050000000     0.026      
H        H      0.507600000000     0.012050000000     0.629950000000     0.026      
H        H      0.799100000000     0.286950000000     0.795700000000     0.026      
H        H      0.992400000000     0.487950000000     0.870050000000     0.026      
H        H      0.694950000000     0.192950000000     0.791650000000     0.026      
H        H      0.750600000000     0.246700000000     0.870800000000     0.026      
H        H      0.962700000000     0.458350000000     0.702100000000     0.026      
H        H      0.507600000000     0.237950000000     0.879950000000     0.026      
H        H      0.700900000000     0.036950000000     0.954300000000     0.026      
H        H      0.944550000000     0.312250000000     0.539000000000     0.026      
H        H      0.749400000000     0.253300000000     0.629200000000     0.026      
H        H      0.944550000000     0.437750000000     0.789000000000     0.026      
H        H      0.799100000000     0.463050000000     0.545700000000     0.026      
H        H      0.537300000000     0.208350000000     0.547900000000     0.026      
H        H      0.750600000000     0.003300000000     0.620800000000     0.026      
H        H      0.694950000000     0.057050000000     0.541650000000     0.026      
H        H      0.805050000000     0.307050000000     0.708350000000     0.026      
H        H      0.962700000000     0.291650000000     0.952100000000     0.026      
H        H      0.555450000000     0.062250000000     0.711000000000     0.026      
H        H      0.555450000000     0.187750000000     0.961000000000     0.026      
H        H      0.805050000000     0.442950000000     0.958350000000     0.026      
H        H      0.749400000000     0.496700000000     0.879200000000     0.026      
H        H      0.537300000000     0.541650000000     0.297900000000     0.026      
H        H      0.700900000000     0.713050000000     0.204300000000     0.026      
H        H      0.992400000000     0.762050000000     0.120050000000     0.026      
H        H      0.507600000000     0.512050000000     0.129950000000     0.026      
H        H      0.799100000000     0.786950000000     0.295700000000     0.026      
H        H      0.992400000000     0.987950000000     0.370050000000     0.026      
H        H      0.694950000000     0.692950000000     0.291650000000     0.026      
H        H      0.750600000000     0.746700000000     0.370800000000     0.026      
H        H      0.962700000000     0.958350000000     0.202100000000     0.026      
H        H      0.507600000000     0.737950000000     0.379950000000     0.026      
H        H      0.700900000000     0.536950000000     0.454300000000     0.026      
H        H      0.944550000000     0.812250000000     0.039000000000     0.026      
H        H      0.749400000000     0.753300000000     0.129200000000     0.026      
H        H      0.944550000000     0.937750000000     0.289000000000     0.026      
H        H      0.799100000000     0.963050000000     0.045700000000     0.026      
H        H      0.537300000000     0.708350000000     0.047900000000     0.026      
H        H      0.750600000000     0.503300000000     0.120800000000     0.026      
H        H      0.694950000000     0.557050000000     0.041650000000     0.026      
H        H      0.805050000000     0.807050000000     0.208350000000     0.026      
H        H      0.962700000000     0.791650000000     0.452100000000     0.026      
H        H      0.555450000000     0.562250000000     0.211000000000     0.026      
H        H      0.555450000000     0.687750000000     0.461000000000     0.026      
H        H      0.805050000000     0.942950000000     0.458350000000     0.026      
H        H      0.749400000000     0.996700000000     0.379200000000     0.026      
H        H      0.537300000000     0.541650000000     0.797900000000     0.026      
H        H      0.700900000000     0.713050000000     0.704300000000     0.026      
H        H      0.992400000000     0.762050000000     0.620050000000     0.026      
H        H      0.507600000000     0.512050000000     0.629950000000     0.026      
H        H      0.799100000000     0.786950000000     0.795700000000     0.026      
H        H      0.992400000000     0.987950000000     0.870050000000     0.026      
H        H      0.694950000000     0.692950000000     0.791650000000     0.026      
H        H      0.750600000000     0.746700000000     0.870800000000     0.026      
H        H      0.962700000000     0.958350000000     0.702100000000     0.026      
H        H      0.507600000000     0.737950000000     0.879950000000     0.026      
H        H      0.700900000000     0.536950000000     0.954300000000     0.026      
H        H      0.944550000000     0.812250000000     0.539000000000     0.026      
H        H      0.749400000000     0.753300000000     0.629200000000     0.026      
H        H      0.944550000000     0.937750000000     0.789000000000     0.026      
H        H      0.799100000000     0.963050000000     0.545700000000     0.026      
H        H      0.537300000000     0.708350000000     0.547900000000     0.026      
H        H      0.750600000000     0.503300000000     0.620800000000     0.026      
H        H      0.694950000000     0.557050000000     0.541650000000     0.026      
H        H      0.805050000000     0.807050000000     0.708350000000     0.026      
H        H      0.962700000000     0.791650000000     0.952100000000     0.026      
H        H      0.555450000000     0.562250000000     0.711000000000     0.026      
H        H      0.555450000000     0.687750000000     0.961000000000     0.026      
H        H      0.805050000000     0.942950000000     0.958350000000     0.026      
H        H      0.749400000000     0.996700000000     0.879200000000     0.026      
N        N      0.257300000000     0.266450000000     0.242780000000     0.045      
N        N      0.242700000000     0.233550000000     0.257220000000     0.045      
N        N      0.485750000000     0.261550000000     0.006115000000     0.045      
N        N      0.014250000000     0.238450000000     0.493885000000     0.045      
N        N      0.485750000000     0.488450000000     0.256115000000     0.045      
N        N      0.242700000000     0.016450000000     0.007220000000     0.045      
N        N      0.257300000000     0.483550000000     0.492780000000     0.045      
N        N      0.014250000000     0.011550000000     0.243885000000     0.045      
N        N      0.257300000000     0.266450000000     0.742780000000     0.045      
N        N      0.242700000000     0.233550000000     0.757220000000     0.045      
N        N      0.485750000000     0.261550000000     0.506115000000     0.045      
N        N      0.014250000000     0.238450000000     0.993885000000     0.045      
N        N      0.485750000000     0.488450000000     0.756115000000     0.045      
N        N      0.242700000000     0.016450000000     0.507220000000     0.045      
N        N      0.257300000000     0.483550000000     0.992780000000     0.045      
N        N      0.014250000000     0.011550000000     0.743885000000     0.045      
N        N      0.257300000000     0.766450000000     0.242780000000     0.045      
N        N      0.242700000000     0.733550000000     0.257220000000     0.045      
N        N      0.485750000000     0.761550000000     0.006115000000     0.045      
N        N      0.014250000000     0.738450000000     0.493885000000     0.045      
N        N      0.485750000000     0.988450000000     0.256115000000     0.045      
N        N      0.242700000000     0.516450000000     0.007220000000     0.045      
N        N      0.257300000000     0.983550000000     0.492780000000     0.045      
N        N      0.014250000000     0.511550000000     0.243885000000     0.045      
N        N      0.257300000000     0.766450000000     0.742780000000     0.045      
N        N      0.242700000000     0.733550000000     0.757220000000     0.045      
N        N      0.485750000000     0.761550000000     0.506115000000     0.045      
N        N      0.014250000000     0.738450000000     0.993885000000     0.045      
N        N      0.485750000000     0.988450000000     0.756115000000     0.045      
N        N      0.242700000000     0.516450000000     0.507220000000     0.045      
N        N      0.257300000000     0.983550000000     0.992780000000     0.045      
N        N      0.014250000000     0.511550000000     0.743885000000     0.045      
N        N      0.757300000000     0.266450000000     0.242780000000     0.045      
N        N      0.742700000000     0.233550000000     0.257220000000     0.045      
N        N      0.985750000000     0.261550000000     0.006115000000     0.045      
N        N      0.514250000000     0.238450000000     0.493885000000     0.045      
N        N      0.985750000000     0.488450000000     0.256115000000     0.045      
N        N      0.742700000000     0.016450000000     0.007220000000     0.045      
N        N      0.757300000000     0.483550000000     0.492780000000     0.045      
N        N      0.514250000000     0.011550000000     0.243885000000     0.045      
N        N      0.757300000000     0.266450000000     0.742780000000     0.045      
N        N      0.742700000000     0.233550000000     0.757220000000     0.045      
N        N      0.985750000000     0.261550000000     0.506115000000     0.045      
N        N      0.514250000000     0.238450000000     0.993885000000     0.045      
N        N      0.985750000000     0.488450000000     0.756115000000     0.045      
N        N      0.742700000000     0.016450000000     0.507220000000     0.045      
N        N      0.757300000000     0.483550000000     0.992780000000     0.045      
N        N      0.514250000000     0.011550000000     0.743885000000     0.045      
N        N      0.757300000000     0.766450000000     0.242780000000     0.045      
N        N      0.742700000000     0.733550000000     0.257220000000     0.045      
N        N      0.985750000000     0.761550000000     0.006115000000     0.045      
N        N      0.514250000000     0.738450000000     0.493885000000     0.045      
N        N      0.985750000000     0.988450000000     0.256115000000     0.045      
N        N      0.742700000000     0.516450000000     0.007220000000     0.045      
N        N      0.757300000000     0.983550000000     0.492780000000     0.045      
N        N      0.514250000000     0.511550000000     0.243885000000     0.045      
N        N      0.757300000000     0.766450000000     0.742780000000     0.045      
N        N      0.742700000000     0.733550000000     0.757220000000     0.045      
N        N      0.985750000000     0.761550000000     0.506115000000     0.045      
N        N      0.514250000000     0.738450000000     0.993885000000     0.045      
N        N      0.985750000000     0.988450000000     0.756115000000     0.045      
N        N      0.742700000000     0.516450000000     0.507220000000     0.045      
N        N      0.757300000000     0.983550000000     0.992780000000     0.045      
N        N      0.514250000000     0.511550000000     0.743885000000     0.045      
O        O      0.310900000000     0.316100000000     0.123870000000     0.06       
O        O      0.423750000000     0.329000000000     0.406270000000     0.06       
O        O      0.189100000000     0.066100000000     0.126130000000     0.06       
O        O      0.344150000000     0.338750000000     0.167780000000     0.06       
O        O      0.310000000000     0.437700000000     0.130650000000     0.06       
O        O      0.448650000000     0.450600000000     0.116020000000     0.06       
O        O      0.190000000000     0.187700000000     0.119350000000     0.06       
O        O      0.157750000000     0.172400000000     0.159325000000     0.06       
O        O      0.344150000000     0.411250000000     0.417780000000     0.06       
O        O      0.155850000000     0.088750000000     0.082220000000     0.06       
O        O      0.423750000000     0.421000000000     0.156270000000     0.06       
O        O      0.076250000000     0.171000000000     0.093730000000     0.06       
O        O      0.342250000000     0.327600000000     0.340675000000     0.06       
O        O      0.051350000000     0.049400000000     0.383980000000     0.06       
O        O      0.342250000000     0.422400000000     0.090675000000     0.06       
O        O      0.428750000000     0.321850000000     0.122000000000     0.06       
O        O      0.190000000000     0.062300000000     0.369350000000     0.06       
O        O      0.411150000000     0.394200000000     0.327980000000     0.06       
O        O      0.076250000000     0.079000000000     0.343730000000     0.06       
O        O      0.157750000000     0.077600000000     0.409325000000     0.06       
O        O      0.411150000000     0.355800000000     0.077980000000     0.06       
O        O      0.088850000000     0.105800000000     0.172020000000     0.06       
O        O      0.189100000000     0.183900000000     0.376130000000     0.06       
O        O      0.310000000000     0.312300000000     0.380650000000     0.06       
O        O      0.310900000000     0.433900000000     0.373870000000     0.06       
O        O      0.071250000000     0.178150000000     0.378000000000     0.06       
O        O      0.071250000000     0.071850000000     0.128000000000     0.06       
O        O      0.448650000000     0.299400000000     0.366020000000     0.06       
O        O      0.428750000000     0.428150000000     0.372000000000     0.06       
O        O      0.155850000000     0.161250000000     0.332220000000     0.06       
O        O      0.051350000000     0.200600000000     0.133980000000     0.06       
O        O      0.088850000000     0.144200000000     0.422020000000     0.06       
O        O      0.310900000000     0.316100000000     0.623870000000     0.06       
O        O      0.423750000000     0.329000000000     0.906270000000     0.06       
O        O      0.189100000000     0.066100000000     0.626130000000     0.06       
O        O      0.344150000000     0.338750000000     0.667780000000     0.06       
O        O      0.310000000000     0.437700000000     0.630650000000     0.06       
O        O      0.448650000000     0.450600000000     0.616020000000     0.06       
O        O      0.190000000000     0.187700000000     0.619350000000     0.06       
O        O      0.157750000000     0.172400000000     0.659325000000     0.06       
O        O      0.344150000000     0.411250000000     0.917780000000     0.06       
O        O      0.155850000000     0.088750000000     0.582220000000     0.06       
O        O      0.423750000000     0.421000000000     0.656270000000     0.06       
O        O      0.076250000000     0.171000000000     0.593730000000     0.06       
O        O      0.342250000000     0.327600000000     0.840675000000     0.06       
O        O      0.051350000000     0.049400000000     0.883980000000     0.06       
O        O      0.342250000000     0.422400000000     0.590675000000     0.06       
O        O      0.428750000000     0.321850000000     0.622000000000     0.06       
O        O      0.190000000000     0.062300000000     0.869350000000     0.06       
O        O      0.411150000000     0.394200000000     0.827980000000     0.06       
O        O      0.076250000000     0.079000000000     0.843730000000     0.06       
O        O      0.157750000000     0.077600000000     0.909325000000     0.06       
O        O      0.411150000000     0.355800000000     0.577980000000     0.06       
O        O      0.088850000000     0.105800000000     0.672020000000     0.06       
O        O      0.189100000000     0.183900000000     0.876130000000     0.06       
O        O      0.310000000000     0.312300000000     0.880650000000     0.06       
O        O      0.310900000000     0.433900000000     0.873870000000     0.06       
O        O      0.071250000000     0.178150000000     0.878000000000     0.06       
O        O      0.071250000000     0.071850000000     0.628000000000     0.06       
O        O      0.448650000000     0.299400000000     0.866020000000     0.06       
O        O      0.428750000000     0.428150000000     0.872000000000     0.06       
O        O      0.155850000000     0.161250000000     0.832220000000     0.06       
O        O      0.051350000000     0.200600000000     0.633980000000     0.06       
O        O      0.088850000000     0.144200000000     0.922020000000     0.06       
O        O      0.310900000000     0.816100000000     0.123870000000     0.06       
O        O      0.423750000000     0.829000000000     0.406270000000     0.06       
O        O      0.189100000000     0.566100000000     0.126130000000     0.06       
O        O      0.344150000000     0.838750000000     0.167780000000     0.06       
O        O      0.310000000000     0.937700000000     0.130650000000     0.06       
O        O      0.448650000000     0.950600000000     0.116020000000     0.06       
O        O      0.190000000000     0.687700000000     0.119350000000     0.06       
O        O      0.157750000000     0.672400000000     0.159325000000     0.06       
O        O      0.344150000000     0.911250000000     0.417780000000     0.06       
O        O      0.155850000000     0.588750000000     0.082220000000     0.06       
O        O      0.423750000000     0.921000000000     0.156270000000     0.06       
O        O      0.076250000000     0.671000000000     0.093730000000     0.06       
O        O      0.342250000000     0.827600000000     0.340675000000     0.06       
O        O      0.051350000000     0.549400000000     0.383980000000     0.06       
O        O      0.342250000000     0.922400000000     0.090675000000     0.06       
O        O      0.428750000000     0.821850000000     0.122000000000     0.06       
O        O      0.190000000000     0.562300000000     0.369350000000     0.06       
O        O      0.411150000000     0.894200000000     0.327980000000     0.06       
O        O      0.076250000000     0.579000000000     0.343730000000     0.06       
O        O      0.157750000000     0.577600000000     0.409325000000     0.06       
O        O      0.411150000000     0.855800000000     0.077980000000     0.06       
O        O      0.088850000000     0.605800000000     0.172020000000     0.06       
O        O      0.189100000000     0.683900000000     0.376130000000     0.06       
O        O      0.310000000000     0.812300000000     0.380650000000     0.06       
O        O      0.310900000000     0.933900000000     0.373870000000     0.06       
O        O      0.071250000000     0.678150000000     0.378000000000     0.06       
O        O      0.071250000000     0.571850000000     0.128000000000     0.06       
O        O      0.448650000000     0.799400000000     0.366020000000     0.06       
O        O      0.428750000000     0.928150000000     0.372000000000     0.06       
O        O      0.155850000000     0.661250000000     0.332220000000     0.06       
O        O      0.051350000000     0.700600000000     0.133980000000     0.06       
O        O      0.088850000000     0.644200000000     0.422020000000     0.06       
O        O      0.310900000000     0.816100000000     0.623870000000     0.06       
O        O      0.423750000000     0.829000000000     0.906270000000     0.06       
O        O      0.189100000000     0.566100000000     0.626130000000     0.06       
O        O      0.344150000000     0.838750000000     0.667780000000     0.06       
O        O      0.310000000000     0.937700000000     0.630650000000     0.06       
O        O      0.448650000000     0.950600000000     0.616020000000     0.06       
O        O      0.190000000000     0.687700000000     0.619350000000     0.06       
O        O      0.157750000000     0.672400000000     0.659325000000     0.06       
O        O      0.344150000000     0.911250000000     0.917780000000     0.06       
O        O      0.155850000000     0.588750000000     0.582220000000     0.06       
O        O      0.423750000000     0.921000000000     0.656270000000     0.06       
O        O      0.076250000000     0.671000000000     0.593730000000     0.06       
O        O      0.342250000000     0.827600000000     0.840675000000     0.06       
O        O      0.051350000000     0.549400000000     0.883980000000     0.06       
O        O      0.342250000000     0.922400000000     0.590675000000     0.06       
O        O      0.428750000000     0.821850000000     0.622000000000     0.06       
O        O      0.190000000000     0.562300000000     0.869350000000     0.06       
O        O      0.411150000000     0.894200000000     0.827980000000     0.06       
O        O      0.076250000000     0.579000000000     0.843730000000     0.06       
O        O      0.157750000000     0.577600000000     0.909325000000     0.06       
O        O      0.411150000000     0.855800000000     0.577980000000     0.06       
O        O      0.088850000000     0.605800000000     0.672020000000     0.06       
O        O      0.189100000000     0.683900000000     0.876130000000     0.06       
O        O      0.310000000000     0.812300000000     0.880650000000     0.06       
O        O      0.310900000000     0.933900000000     0.873870000000     0.06       
O        O      0.071250000000     0.678150000000     0.878000000000     0.06       
O        O      0.071250000000     0.571850000000     0.628000000000     0.06       
O        O      0.448650000000     0.799400000000     0.866020000000     0.06       
O        O      0.428750000000     0.928150000000     0.872000000000     0.06       
O        O      0.155850000000     0.661250000000     0.832220000000     0.06       
O        O      0.051350000000     0.700600000000     0.633980000000     0.06       
O        O      0.088850000000     0.644200000000     0.922020000000     0.06       
O        O      0.810900000000     0.316100000000     0.123870000000     0.06       
O        O      0.923750000000     0.329000000000     0.406270000000     0.06       
O        O      0.689100000000     0.066100000000     0.126130000000     0.06       
O        O      0.844150000000     0.338750000000     0.167780000000     0.06       
O        O      0.810000000000     0.437700000000     0.130650000000     0.06       
O        O      0.948650000000     0.450600000000     0.116020000000     0.06       
O        O      0.690000000000     0.187700000000     0.119350000000     0.06       
O        O      0.657750000000     0.172400000000     0.159325000000     0.06       
O        O      0.844150000000     0.411250000000     0.417780000000     0.06       
O        O      0.655850000000     0.088750000000     0.082220000000     0.06       
O        O      0.923750000000     0.421000000000     0.156270000000     0.06       
O        O      0.576250000000     0.171000000000     0.093730000000     0.06       
O        O      0.842250000000     0.327600000000     0.340675000000     0.06       
O        O      0.551350000000     0.049400000000     0.383980000000     0.06       
O        O      0.842250000000     0.422400000000     0.090675000000     0.06       
O        O      0.928750000000     0.321850000000     0.122000000000     0.06       
O        O      0.690000000000     0.062300000000     0.369350000000     0.06       
O        O      0.911150000000     0.394200000000     0.327980000000     0.06       
O        O      0.576250000000     0.079000000000     0.343730000000     0.06       
O        O      0.657750000000     0.077600000000     0.409325000000     0.06       
O        O      0.911150000000     0.355800000000     0.077980000000     0.06       
O        O      0.588850000000     0.105800000000     0.172020000000     0.06       
O        O      0.689100000000     0.183900000000     0.376130000000     0.06       
O        O      0.810000000000     0.312300000000     0.380650000000     0.06       
O        O      0.810900000000     0.433900000000     0.373870000000     0.06       
O        O      0.571250000000     0.178150000000     0.378000000000     0.06       
O        O      0.571250000000     0.071850000000     0.128000000000     0.06       
O        O      0.948650000000     0.299400000000     0.366020000000     0.06       
O        O      0.928750000000     0.428150000000     0.372000000000     0.06       
O        O      0.655850000000     0.161250000000     0.332220000000     0.06       
O        O      0.551350000000     0.200600000000     0.133980000000     0.06       
O        O      0.588850000000     0.144200000000     0.422020000000     0.06       
O        O      0.810900000000     0.316100000000     0.623870000000     0.06       
O        O      0.923750000000     0.329000000000     0.906270000000     0.06       
O        O      0.689100000000     0.066100000000     0.626130000000     0.06       
O        O      0.844150000000     0.338750000000     0.667780000000     0.06       
O        O      0.810000000000     0.437700000000     0.630650000000     0.06       
O        O      0.948650000000     0.450600000000     0.616020000000     0.06       
O        O      0.690000000000     0.187700000000     0.619350000000     0.06       
O        O      0.657750000000     0.172400000000     0.659325000000     0.06       
O        O      0.844150000000     0.411250000000     0.917780000000     0.06       
O        O      0.655850000000     0.088750000000     0.582220000000     0.06       
O        O      0.923750000000     0.421000000000     0.656270000000     0.06       
O        O      0.576250000000     0.171000000000     0.593730000000     0.06       
O        O      0.842250000000     0.327600000000     0.840675000000     0.06       
O        O      0.551350000000     0.049400000000     0.883980000000     0.06       
O        O      0.842250000000     0.422400000000     0.590675000000     0.06       
O        O      0.928750000000     0.321850000000     0.622000000000     0.06       
O        O      0.690000000000     0.062300000000     0.869350000000     0.06       
O        O      0.911150000000     0.394200000000     0.827980000000     0.06       
O        O      0.576250000000     0.079000000000     0.843730000000     0.06       
O        O      0.657750000000     0.077600000000     0.909325000000     0.06       
O        O      0.911150000000     0.355800000000     0.577980000000     0.06       
O        O      0.588850000000     0.105800000000     0.672020000000     0.06       
O        O      0.689100000000     0.183900000000     0.876130000000     0.06       
O        O      0.810000000000     0.312300000000     0.880650000000     0.06       
O        O      0.810900000000     0.433900000000     0.873870000000     0.06       
O        O      0.571250000000     0.178150000000     0.878000000000     0.06       
O        O      0.571250000000     0.071850000000     0.628000000000     0.06       
O        O      0.948650000000     0.299400000000     0.866020000000     0.06       
O        O      0.928750000000     0.428150000000     0.872000000000     0.06       
O        O      0.655850000000     0.161250000000     0.832220000000     0.06       
O        O      0.551350000000     0.200600000000     0.633980000000     0.06       
O        O      0.588850000000     0.144200000000     0.922020000000     0.06       
O        O      0.810900000000     0.816100000000     0.123870000000     0.06       
O        O      0.923750000000     0.829000000000     0.406270000000     0.06       
O        O      0.689100000000     0.566100000000     0.126130000000     0.06       
O        O      0.844150000000     0.838750000000     0.167780000000     0.06       
O        O      0.810000000000     0.937700000000     0.130650000000     0.06       
O        O      0.948650000000     0.950600000000     0.116020000000     0.06       
O        O      0.690000000000     0.687700000000     0.119350000000     0.06       
O        O      0.657750000000     0.672400000000     0.159325000000     0.06       
O        O      0.844150000000     0.911250000000     0.417780000000     0.06       
O        O      0.655850000000     0.588750000000     0.082220000000     0.06       
O        O      0.923750000000     0.921000000000     0.156270000000     0.06       
O        O      0.576250000000     0.671000000000     0.093730000000     0.06       
O        O      0.842250000000     0.827600000000     0.340675000000     0.06       
O        O      0.551350000000     0.549400000000     0.383980000000     0.06       
O        O      0.842250000000     0.922400000000     0.090675000000     0.06       
O        O      0.928750000000     0.821850000000     0.122000000000     0.06       
O        O      0.690000000000     0.562300000000     0.369350000000     0.06       
O        O      0.911150000000     0.894200000000     0.327980000000     0.06       
O        O      0.576250000000     0.579000000000     0.343730000000     0.06       
O        O      0.657750000000     0.577600000000     0.409325000000     0.06       
O        O      0.911150000000     0.855800000000     0.077980000000     0.06       
O        O      0.588850000000     0.605800000000     0.172020000000     0.06       
O        O      0.689100000000     0.683900000000     0.376130000000     0.06       
O        O      0.810000000000     0.812300000000     0.380650000000     0.06       
O        O      0.810900000000     0.933900000000     0.373870000000     0.06       
O        O      0.571250000000     0.678150000000     0.378000000000     0.06       
O        O      0.571250000000     0.571850000000     0.128000000000     0.06       
O        O      0.948650000000     0.799400000000     0.366020000000     0.06       
O        O      0.928750000000     0.928150000000     0.372000000000     0.06       
O        O      0.655850000000     0.661250000000     0.332220000000     0.06       
O        O      0.551350000000     0.700600000000     0.133980000000     0.06       
O        O      0.588850000000     0.644200000000     0.422020000000     0.06       
O        O      0.810900000000     0.816100000000     0.623870000000     0.06       
O        O      0.923750000000     0.829000000000     0.906270000000     0.06       
O        O      0.689100000000     0.566100000000     0.626130000000     0.06       
O        O      0.844150000000     0.838750000000     0.667780000000     0.06       
O        O      0.810000000000     0.937700000000     0.630650000000     0.06       
O        O      0.948650000000     0.950600000000     0.616020000000     0.06       
O        O      0.690000000000     0.687700000000     0.619350000000     0.06       
O        O      0.657750000000     0.672400000000     0.659325000000     0.06       
O        O      0.844150000000     0.911250000000     0.917780000000     0.06       
O        O      0.655850000000     0.588750000000     0.582220000000     0.06       
O        O      0.923750000000     0.921000000000     0.656270000000     0.06       
O        O      0.576250000000     0.671000000000     0.593730000000     0.06       
O        O      0.842250000000     0.827600000000     0.840675000000     0.06       
O        O      0.551350000000     0.549400000000     0.883980000000     0.06       
O        O      0.842250000000     0.922400000000     0.590675000000     0.06       
O        O      0.928750000000     0.821850000000     0.622000000000     0.06       
O        O      0.690000000000     0.562300000000     0.869350000000     0.06       
O        O      0.911150000000     0.894200000000     0.827980000000     0.06       
O        O      0.576250000000     0.579000000000     0.843730000000     0.06       
O        O      0.657750000000     0.577600000000     0.909325000000     0.06       
O        O      0.911150000000     0.855800000000     0.577980000000     0.06       
O        O      0.588850000000     0.605800000000     0.672020000000     0.06       
O        O      0.689100000000     0.683900000000     0.876130000000     0.06       
O        O      0.810000000000     0.812300000000     0.880650000000     0.06       
O        O      0.810900000000     0.933900000000     0.873870000000     0.06       
O        O      0.571250000000     0.678150000000     0.878000000000     0.06       
O        O      0.571250000000     0.571850000000     0.628000000000     0.06       
O        O      0.948650000000     0.799400000000     0.866020000000     0.06       
O        O      0.928750000000     0.928150000000     0.872000000000     0.06       
O        O      0.655850000000     0.661250000000     0.832220000000     0.06       
O        O      0.551350000000     0.700600000000     0.633980000000     0.06       
O        O      0.588850000000     0.644200000000     0.922020000000     0.06       


