data_WEGFUL_clean

_audit_creation_method RASPA-1.0
_audit_creation_date 2025-9-8
_audit_author_name ''

_cell_length_a    30.6093
_cell_length_b    34.3764
_cell_length_c    35.0692
_cell_angle_alpha 90
_cell_angle_beta  90
_cell_angle_gamma 109.874
_cell_volume      34703.4

_symmetry_cell_setting          triclinic
_symmetry_space_group_name_Hall 'P 1'
_symmetry_space_group_name_H-M  'P 1'
_symmetry_Int_Tables_number     1

_symmetry_equiv_pos_as_xyz 'x,y,z'

loop_
_atom_site_label
_atom_site_type_symbol
_atom_site_fract_x
_atom_site_fract_y
_atom_site_fract_z
_atom_site_charge
Eu       Eu     0.163533333333     0.106316666667     0.496360000000     2.101      
Eu       Eu     0.169800000000     0.060350000000     0.246360000000     2.1        
Eu       Eu     0.169800000000     0.227016666667     0.003640000000     2.101      
Eu       Eu     0.163533333333     0.272983333333     0.253640000000     2.1        
H        H      0.133600000000     0.121800000000     0.357450000000     0.069      
H        H      0.149466666667     0.154433333333     0.299300000000     0.052      
H        H      0.215000000000     0.261133333333     0.348950000000     0.049      
H        H      0.196366666667     0.231433333333     0.408300000000     0.041      
H        H      0.006133333333     0.070466666667     0.004300000000     0.08       
H        H      0.260266666667     0.051200000000     0.013100000000     0.069      
H        H      0.275133333333     0.157433333333     0.062750000000     0.038      
H        H      0.021066666667     0.179633333333     0.053500000000     0.058      
H        H      0.199733333333     0.044866666667     0.107450000000     0.066      
H        H      0.183866666667     0.012233333333     0.049300000000     0.056      
H        H      0.118333333333     0.238866666667     0.098950000000     0.049      
H        H      0.136966666667     0.268566666667     0.158300000000     0.04       
H        H      0.327200000000     0.096200000000     0.254300000000     0.076      
H        H      0.073066666667     0.115466666667     0.263100000000     0.07       
H        H      0.058200000000     0.009233333333     0.312750000000     0.037      
H        H      0.312266666667     0.320366666667     0.303500000000     0.062      
H        H      0.199733333333     0.211533333333     0.142550000000     0.069      
H        H      0.183866666667     0.178900000000     0.200700000000     0.052      
H        H      0.118333333333     0.072200000000     0.151050000000     0.049      
H        H      0.136966666667     0.101900000000     0.091700000000     0.041      
H        H      0.327200000000     0.262866666667     0.495700000000     0.08       
H        H      0.073066666667     0.282133333333     0.486900000000     0.069      
H        H      0.058200000000     0.175900000000     0.437250000000     0.038      
H        H      0.312266666667     0.153700000000     0.446500000000     0.058      
H        H      0.133600000000     0.288466666667     0.392550000000     0.066      
H        H      0.149466666667     0.321100000000     0.450700000000     0.056      
H        H      0.215000000000     0.094466666667     0.401050000000     0.049      
H        H      0.196366666667     0.064766666667     0.341700000000     0.04       
H        H      0.006133333333     0.237133333333     0.245700000000     0.076      
H        H      0.260266666667     0.217866666667     0.236900000000     0.07       
H        H      0.275133333333     0.324100000000     0.187250000000     0.037      
H        H      0.021066666667     0.012966666667     0.196500000000     0.062      
C        C      0.154000000000     0.152500000000     0.428000000000     0.423      
C        C      0.163800000000     0.173333333333     0.389450000000    -0.089      
C        C      0.149700000000     0.150066666667     0.356100000000    -0.023      
C        C      0.159866666667     0.169533333333     0.321500000000     0.036      
C        C      0.198233333333     0.233033333333     0.350950000000     0.017      
C        C      0.187600000000     0.215300000000     0.386450000000    -0.007      
C        C      0.074300000000     0.142200000000     0.019100000000     0.45       
C        C      0.023233333333     0.127700000000     0.027250000000    -0.088      
C        C      0.327033333333     0.088800000000     0.015700000000    -0.02       
C        C      0.279666666667     0.077200000000     0.020900000000     0.019      
C        C      0.288566666667     0.140466666667     0.050200000000     0.019      
C        C      0.002666666667     0.153533333333     0.045100000000    -0.021      
C        C      0.179333333333     0.014166666667     0.178000000000     0.426      
C        C      0.169533333333     0.326666666667     0.139450000000    -0.094      
C        C      0.183633333333     0.016600000000     0.106100000000    -0.015      
C        C      0.173466666667     0.330466666667     0.071500000000     0.027      
C        C      0.135100000000     0.266966666667     0.100950000000     0.015      
C        C      0.145733333333     0.284700000000     0.136450000000    -0.003      
C        C      0.259033333333     0.024466666667     0.269100000000     0.448      
C        C      0.310100000000     0.038966666667     0.277250000000    -0.089      
C        C      0.006300000000     0.077866666667     0.265700000000    -0.014      
C        C      0.053666666667     0.089466666667     0.270900000000     0.016      
C        C      0.044766666667     0.026200000000     0.300200000000     0.024      
C        C      0.330666666667     0.013133333333     0.295100000000    -0.029      
C        C      0.179333333333     0.180833333333     0.072000000000     0.423      
C        C      0.169533333333     0.160000000000     0.110550000000    -0.089      
C        C      0.183633333333     0.183266666667     0.143900000000    -0.023      
C        C      0.173466666667     0.163800000000     0.178500000000     0.036      
C        C      0.135100000000     0.100300000000     0.149050000000     0.017      
C        C      0.145733333333     0.118033333333     0.113550000000    -0.007      
C        C      0.259033333333     0.191133333333     0.480900000000     0.45       
C        C      0.310100000000     0.205633333333     0.472750000000    -0.088      
C        C      0.006300000000     0.244533333333     0.484300000000    -0.02       
C        C      0.053666666667     0.256133333333     0.479100000000     0.019      
C        C      0.044766666667     0.192866666667     0.449800000000     0.019      
C        C      0.330666666667     0.179800000000     0.454900000000    -0.021      
C        C      0.154000000000     0.319166666667     0.322000000000     0.426      
C        C      0.163800000000     0.006666666667     0.360550000000    -0.094      
C        C      0.149700000000     0.316733333333     0.393900000000    -0.015      
C        C      0.159866666667     0.002866666667     0.428500000000     0.027      
C        C      0.198233333333     0.066366666667     0.399050000000     0.015      
C        C      0.187600000000     0.048633333333     0.363550000000    -0.003      
C        C      0.074300000000     0.308866666667     0.230900000000     0.448      
C        C      0.023233333333     0.294366666667     0.222750000000    -0.089      
C        C      0.327033333333     0.255466666667     0.234300000000    -0.014      
C        C      0.279666666667     0.243866666667     0.229100000000     0.016      
C        C      0.288566666667     0.307133333333     0.199800000000     0.024      
C        C      0.002666666667     0.320200000000     0.204900000000    -0.029      
N        N      0.089400000000     0.030300000000     0.015950000000     0.067      
N        N      0.184666666667     0.210166666667     0.319050000000    -0.042      
N        N      0.261766666667     0.103600000000     0.037300000000    -0.05       
N        N      0.243933333333     0.136366666667     0.265950000000     0.066      
N        N      0.148666666667     0.289833333333     0.069050000000    -0.041      
N        N      0.071566666667     0.063066666667     0.287300000000    -0.05       
N        N      0.243933333333     0.303033333333     0.484050000000     0.067      
N        N      0.148666666667     0.123166666667     0.180950000000    -0.042      
N        N      0.071566666667     0.229733333333     0.462700000000    -0.05       
N        N      0.089400000000     0.196966666667     0.234050000000     0.066      
N        N      0.184666666667     0.043500000000     0.430950000000    -0.041      
N        N      0.261766666667     0.270266666667     0.212700000000    -0.05       
O        O      0.117666666667     0.051766666667     0.041000000000    -0.28       
O        O      0.098800000000     0.039466666667     0.481550000000    -0.258      
O        O      0.146400000000     0.114500000000     0.429500000000    -0.448      
O        O      0.158166666667     0.174233333333     0.457400000000    -0.575      
O        O      0.195866666667     0.227666666667     0.285350000000    -0.304      
O        O      0.090466666667     0.115433333333     0.007550000000    -0.478      
O        O      0.096566666667     0.180300000000     0.023850000000    -0.488      
O        O      0.215433333333     0.091500000000     0.041050000000    -0.309      
O        O      0.056066666667     0.001700000000     0.024500000000    -0.105      
O        O      0.215666666667     0.114900000000     0.291000000000    -0.28       
O        O      0.234533333333     0.127200000000     0.231550000000    -0.256      
O        O      0.186933333333     0.052166666667     0.179500000000    -0.448      
O        O      0.175166666667     0.325766666667     0.207400000000    -0.576      
O        O      0.137466666667     0.272333333333     0.035350000000    -0.305      
O        O      0.242866666667     0.051233333333     0.257550000000    -0.479      
O        O      0.236766666667     0.319700000000     0.273850000000    -0.487      
O        O      0.117900000000     0.075166666667     0.291050000000    -0.309      
O        O      0.277266666667     0.164966666667     0.274500000000    -0.106      
O        O      0.215666666667     0.281566666667     0.459000000000    -0.28       
O        O      0.234533333333     0.293866666667     0.018450000000    -0.258      
O        O      0.186933333333     0.218833333333     0.070500000000    -0.448      
O        O      0.175166666667     0.159100000000     0.042600000000    -0.575      
O        O      0.137466666667     0.105666666667     0.214650000000    -0.304      
O        O      0.242866666667     0.217900000000     0.492450000000    -0.478      
O        O      0.236766666667     0.153033333333     0.476150000000    -0.488      
O        O      0.117900000000     0.241833333333     0.458950000000    -0.309      
O        O      0.277266666667     0.331633333333     0.475500000000    -0.105      
O        O      0.117666666667     0.218433333333     0.209000000000    -0.28       
O        O      0.098800000000     0.206133333333     0.268450000000    -0.256      
O        O      0.146400000000     0.281166666667     0.320500000000    -0.448      
O        O      0.158166666667     0.007566666667     0.292600000000    -0.576      
O        O      0.195866666667     0.061000000000     0.464650000000    -0.305      
O        O      0.090466666667     0.282100000000     0.242450000000    -0.479      
O        O      0.096566666667     0.013633333333     0.226150000000    -0.487      
O        O      0.215433333333     0.258166666667     0.208950000000    -0.309      
O        O      0.056066666667     0.168366666667     0.225500000000    -0.106      
Eu       Eu     0.163533333333     0.106316666667     0.996360000000     2.101      
Eu       Eu     0.169800000000     0.060350000000     0.746360000000     2.1        
Eu       Eu     0.169800000000     0.227016666667     0.503640000000     2.101      
Eu       Eu     0.163533333333     0.272983333333     0.753640000000     2.1        
H        H      0.133600000000     0.121800000000     0.857450000000     0.069      
H        H      0.149466666667     0.154433333333     0.799300000000     0.052      
H        H      0.215000000000     0.261133333333     0.848950000000     0.049      
H        H      0.196366666667     0.231433333333     0.908300000000     0.041      
H        H      0.006133333333     0.070466666667     0.504300000000     0.08       
H        H      0.260266666667     0.051200000000     0.513100000000     0.069      
H        H      0.275133333333     0.157433333333     0.562750000000     0.038      
H        H      0.021066666667     0.179633333333     0.553500000000     0.058      
H        H      0.199733333333     0.044866666667     0.607450000000     0.066      
H        H      0.183866666667     0.012233333333     0.549300000000     0.056      
H        H      0.118333333333     0.238866666667     0.598950000000     0.049      
H        H      0.136966666667     0.268566666667     0.658300000000     0.04       
H        H      0.327200000000     0.096200000000     0.754300000000     0.076      
H        H      0.073066666667     0.115466666667     0.763100000000     0.07       
H        H      0.058200000000     0.009233333333     0.812750000000     0.037      
H        H      0.312266666667     0.320366666667     0.803500000000     0.062      
H        H      0.199733333333     0.211533333333     0.642550000000     0.069      
H        H      0.183866666667     0.178900000000     0.700700000000     0.052      
H        H      0.118333333333     0.072200000000     0.651050000000     0.049      
H        H      0.136966666667     0.101900000000     0.591700000000     0.041      
H        H      0.327200000000     0.262866666667     0.995700000000     0.08       
H        H      0.073066666667     0.282133333333     0.986900000000     0.069      
H        H      0.058200000000     0.175900000000     0.937250000000     0.038      
H        H      0.312266666667     0.153700000000     0.946500000000     0.058      
H        H      0.133600000000     0.288466666667     0.892550000000     0.066      
H        H      0.149466666667     0.321100000000     0.950700000000     0.056      
H        H      0.215000000000     0.094466666667     0.901050000000     0.049      
H        H      0.196366666667     0.064766666667     0.841700000000     0.04       
H        H      0.006133333333     0.237133333333     0.745700000000     0.076      
H        H      0.260266666667     0.217866666667     0.736900000000     0.07       
H        H      0.275133333333     0.324100000000     0.687250000000     0.037      
H        H      0.021066666667     0.012966666667     0.696500000000     0.062      
C        C      0.154000000000     0.152500000000     0.928000000000     0.423      
C        C      0.163800000000     0.173333333333     0.889450000000    -0.089      
C        C      0.149700000000     0.150066666667     0.856100000000    -0.023      
C        C      0.159866666667     0.169533333333     0.821500000000     0.036      
C        C      0.198233333333     0.233033333333     0.850950000000     0.017      
C        C      0.187600000000     0.215300000000     0.886450000000    -0.007      
C        C      0.074300000000     0.142200000000     0.519100000000     0.45       
C        C      0.023233333333     0.127700000000     0.527250000000    -0.088      
C        C      0.327033333333     0.088800000000     0.515700000000    -0.02       
C        C      0.279666666667     0.077200000000     0.520900000000     0.019      
C        C      0.288566666667     0.140466666667     0.550200000000     0.019      
C        C      0.002666666667     0.153533333333     0.545100000000    -0.021      
C        C      0.179333333333     0.014166666667     0.678000000000     0.426      
C        C      0.169533333333     0.326666666667     0.639450000000    -0.094      
C        C      0.183633333333     0.016600000000     0.606100000000    -0.015      
C        C      0.173466666667     0.330466666667     0.571500000000     0.027      
C        C      0.135100000000     0.266966666667     0.600950000000     0.015      
C        C      0.145733333333     0.284700000000     0.636450000000    -0.003      
C        C      0.259033333333     0.024466666667     0.769100000000     0.448      
C        C      0.310100000000     0.038966666667     0.777250000000    -0.089      
C        C      0.006300000000     0.077866666667     0.765700000000    -0.014      
C        C      0.053666666667     0.089466666667     0.770900000000     0.016      
C        C      0.044766666667     0.026200000000     0.800200000000     0.024      
C        C      0.330666666667     0.013133333333     0.795100000000    -0.029      
C        C      0.179333333333     0.180833333333     0.572000000000     0.423      
C        C      0.169533333333     0.160000000000     0.610550000000    -0.089      
C        C      0.183633333333     0.183266666667     0.643900000000    -0.023      
C        C      0.173466666667     0.163800000000     0.678500000000     0.036      
C        C      0.135100000000     0.100300000000     0.649050000000     0.017      
C        C      0.145733333333     0.118033333333     0.613550000000    -0.007      
C        C      0.259033333333     0.191133333333     0.980900000000     0.45       
C        C      0.310100000000     0.205633333333     0.972750000000    -0.088      
C        C      0.006300000000     0.244533333333     0.984300000000    -0.02       
C        C      0.053666666667     0.256133333333     0.979100000000     0.019      
C        C      0.044766666667     0.192866666667     0.949800000000     0.019      
C        C      0.330666666667     0.179800000000     0.954900000000    -0.021      
C        C      0.154000000000     0.319166666667     0.822000000000     0.426      
C        C      0.163800000000     0.006666666667     0.860550000000    -0.094      
C        C      0.149700000000     0.316733333333     0.893900000000    -0.015      
C        C      0.159866666667     0.002866666667     0.928500000000     0.027      
C        C      0.198233333333     0.066366666667     0.899050000000     0.015      
C        C      0.187600000000     0.048633333333     0.863550000000    -0.003      
C        C      0.074300000000     0.308866666667     0.730900000000     0.448      
C        C      0.023233333333     0.294366666667     0.722750000000    -0.089      
C        C      0.327033333333     0.255466666667     0.734300000000    -0.014      
C        C      0.279666666667     0.243866666667     0.729100000000     0.016      
C        C      0.288566666667     0.307133333333     0.699800000000     0.024      
C        C      0.002666666667     0.320200000000     0.704900000000    -0.029      
N        N      0.089400000000     0.030300000000     0.515950000000     0.067      
N        N      0.184666666667     0.210166666667     0.819050000000    -0.042      
N        N      0.261766666667     0.103600000000     0.537300000000    -0.05       
N        N      0.243933333333     0.136366666667     0.765950000000     0.066      
N        N      0.148666666667     0.289833333333     0.569050000000    -0.041      
N        N      0.071566666667     0.063066666667     0.787300000000    -0.05       
N        N      0.243933333333     0.303033333333     0.984050000000     0.067      
N        N      0.148666666667     0.123166666667     0.680950000000    -0.042      
N        N      0.071566666667     0.229733333333     0.962700000000    -0.05       
N        N      0.089400000000     0.196966666667     0.734050000000     0.066      
N        N      0.184666666667     0.043500000000     0.930950000000    -0.041      
N        N      0.261766666667     0.270266666667     0.712700000000    -0.05       
O        O      0.117666666667     0.051766666667     0.541000000000    -0.28       
O        O      0.098800000000     0.039466666667     0.981550000000    -0.258      
O        O      0.146400000000     0.114500000000     0.929500000000    -0.448      
O        O      0.158166666667     0.174233333333     0.957400000000    -0.575      
O        O      0.195866666667     0.227666666667     0.785350000000    -0.304      
O        O      0.090466666667     0.115433333333     0.507550000000    -0.478      
O        O      0.096566666667     0.180300000000     0.523850000000    -0.488      
O        O      0.215433333333     0.091500000000     0.541050000000    -0.309      
O        O      0.056066666667     0.001700000000     0.524500000000    -0.105      
O        O      0.215666666667     0.114900000000     0.791000000000    -0.28       
O        O      0.234533333333     0.127200000000     0.731550000000    -0.256      
O        O      0.186933333333     0.052166666667     0.679500000000    -0.448      
O        O      0.175166666667     0.325766666667     0.707400000000    -0.576      
O        O      0.137466666667     0.272333333333     0.535350000000    -0.305      
O        O      0.242866666667     0.051233333333     0.757550000000    -0.479      
O        O      0.236766666667     0.319700000000     0.773850000000    -0.487      
O        O      0.117900000000     0.075166666667     0.791050000000    -0.309      
O        O      0.277266666667     0.164966666667     0.774500000000    -0.106      
O        O      0.215666666667     0.281566666667     0.959000000000    -0.28       
O        O      0.234533333333     0.293866666667     0.518450000000    -0.258      
O        O      0.186933333333     0.218833333333     0.570500000000    -0.448      
O        O      0.175166666667     0.159100000000     0.542600000000    -0.575      
O        O      0.137466666667     0.105666666667     0.714650000000    -0.304      
O        O      0.242866666667     0.217900000000     0.992450000000    -0.478      
O        O      0.236766666667     0.153033333333     0.976150000000    -0.488      
O        O      0.117900000000     0.241833333333     0.958950000000    -0.309      
O        O      0.277266666667     0.331633333333     0.975500000000    -0.105      
O        O      0.117666666667     0.218433333333     0.709000000000    -0.28       
O        O      0.098800000000     0.206133333333     0.768450000000    -0.256      
O        O      0.146400000000     0.281166666667     0.820500000000    -0.448      
O        O      0.158166666667     0.007566666667     0.792600000000    -0.576      
O        O      0.195866666667     0.061000000000     0.964650000000    -0.305      
O        O      0.090466666667     0.282100000000     0.742450000000    -0.479      
O        O      0.096566666667     0.013633333333     0.726150000000    -0.487      
O        O      0.215433333333     0.258166666667     0.708950000000    -0.309      
O        O      0.056066666667     0.168366666667     0.725500000000    -0.106      
Eu       Eu     0.163533333333     0.439650000000     0.496360000000     2.101      
Eu       Eu     0.169800000000     0.393683333333     0.246360000000     2.1        
Eu       Eu     0.169800000000     0.560350000000     0.003640000000     2.101      
Eu       Eu     0.163533333333     0.606316666667     0.253640000000     2.1        
H        H      0.133600000000     0.455133333333     0.357450000000     0.069      
H        H      0.149466666667     0.487766666667     0.299300000000     0.052      
H        H      0.215000000000     0.594466666667     0.348950000000     0.049      
H        H      0.196366666667     0.564766666667     0.408300000000     0.041      
H        H      0.006133333333     0.403800000000     0.004300000000     0.08       
H        H      0.260266666667     0.384533333333     0.013100000000     0.069      
H        H      0.275133333333     0.490766666667     0.062750000000     0.038      
H        H      0.021066666667     0.512966666667     0.053500000000     0.058      
H        H      0.199733333333     0.378200000000     0.107450000000     0.066      
H        H      0.183866666667     0.345566666667     0.049300000000     0.056      
H        H      0.118333333333     0.572200000000     0.098950000000     0.049      
H        H      0.136966666667     0.601900000000     0.158300000000     0.04       
H        H      0.327200000000     0.429533333333     0.254300000000     0.076      
H        H      0.073066666667     0.448800000000     0.263100000000     0.07       
H        H      0.058200000000     0.342566666667     0.312750000000     0.037      
H        H      0.312266666667     0.653700000000     0.303500000000     0.062      
H        H      0.199733333333     0.544866666667     0.142550000000     0.069      
H        H      0.183866666667     0.512233333333     0.200700000000     0.052      
H        H      0.118333333333     0.405533333333     0.151050000000     0.049      
H        H      0.136966666667     0.435233333333     0.091700000000     0.041      
H        H      0.327200000000     0.596200000000     0.495700000000     0.08       
H        H      0.073066666667     0.615466666667     0.486900000000     0.069      
H        H      0.058200000000     0.509233333333     0.437250000000     0.038      
H        H      0.312266666667     0.487033333333     0.446500000000     0.058      
H        H      0.133600000000     0.621800000000     0.392550000000     0.066      
H        H      0.149466666667     0.654433333333     0.450700000000     0.056      
H        H      0.215000000000     0.427800000000     0.401050000000     0.049      
H        H      0.196366666667     0.398100000000     0.341700000000     0.04       
H        H      0.006133333333     0.570466666667     0.245700000000     0.076      
H        H      0.260266666667     0.551200000000     0.236900000000     0.07       
H        H      0.275133333333     0.657433333333     0.187250000000     0.037      
H        H      0.021066666667     0.346300000000     0.196500000000     0.062      
C        C      0.154000000000     0.485833333333     0.428000000000     0.423      
C        C      0.163800000000     0.506666666667     0.389450000000    -0.089      
C        C      0.149700000000     0.483400000000     0.356100000000    -0.023      
C        C      0.159866666667     0.502866666667     0.321500000000     0.036      
C        C      0.198233333333     0.566366666667     0.350950000000     0.017      
C        C      0.187600000000     0.548633333333     0.386450000000    -0.007      
C        C      0.074300000000     0.475533333333     0.019100000000     0.45       
C        C      0.023233333333     0.461033333333     0.027250000000    -0.088      
C        C      0.327033333333     0.422133333333     0.015700000000    -0.02       
C        C      0.279666666667     0.410533333333     0.020900000000     0.019      
C        C      0.288566666667     0.473800000000     0.050200000000     0.019      
C        C      0.002666666667     0.486866666667     0.045100000000    -0.021      
C        C      0.179333333333     0.347500000000     0.178000000000     0.426      
C        C      0.169533333333     0.660000000000     0.139450000000    -0.094      
C        C      0.183633333333     0.349933333333     0.106100000000    -0.015      
C        C      0.173466666667     0.663800000000     0.071500000000     0.027      
C        C      0.135100000000     0.600300000000     0.100950000000     0.015      
C        C      0.145733333333     0.618033333333     0.136450000000    -0.003      
C        C      0.259033333333     0.357800000000     0.269100000000     0.448      
C        C      0.310100000000     0.372300000000     0.277250000000    -0.089      
C        C      0.006300000000     0.411200000000     0.265700000000    -0.014      
C        C      0.053666666667     0.422800000000     0.270900000000     0.016      
C        C      0.044766666667     0.359533333333     0.300200000000     0.024      
C        C      0.330666666667     0.346466666667     0.295100000000    -0.029      
C        C      0.179333333333     0.514166666667     0.072000000000     0.423      
C        C      0.169533333333     0.493333333333     0.110550000000    -0.089      
C        C      0.183633333333     0.516600000000     0.143900000000    -0.023      
C        C      0.173466666667     0.497133333333     0.178500000000     0.036      
C        C      0.135100000000     0.433633333333     0.149050000000     0.017      
C        C      0.145733333333     0.451366666667     0.113550000000    -0.007      
C        C      0.259033333333     0.524466666667     0.480900000000     0.45       
C        C      0.310100000000     0.538966666667     0.472750000000    -0.088      
C        C      0.006300000000     0.577866666667     0.484300000000    -0.02       
C        C      0.053666666667     0.589466666667     0.479100000000     0.019      
C        C      0.044766666667     0.526200000000     0.449800000000     0.019      
C        C      0.330666666667     0.513133333333     0.454900000000    -0.021      
C        C      0.154000000000     0.652500000000     0.322000000000     0.426      
C        C      0.163800000000     0.340000000000     0.360550000000    -0.094      
C        C      0.149700000000     0.650066666667     0.393900000000    -0.015      
C        C      0.159866666667     0.336200000000     0.428500000000     0.027      
C        C      0.198233333333     0.399700000000     0.399050000000     0.015      
C        C      0.187600000000     0.381966666667     0.363550000000    -0.003      
C        C      0.074300000000     0.642200000000     0.230900000000     0.448      
C        C      0.023233333333     0.627700000000     0.222750000000    -0.089      
C        C      0.327033333333     0.588800000000     0.234300000000    -0.014      
C        C      0.279666666667     0.577200000000     0.229100000000     0.016      
C        C      0.288566666667     0.640466666667     0.199800000000     0.024      
C        C      0.002666666667     0.653533333333     0.204900000000    -0.029      
N        N      0.089400000000     0.363633333333     0.015950000000     0.067      
N        N      0.184666666667     0.543500000000     0.319050000000    -0.042      
N        N      0.261766666667     0.436933333333     0.037300000000    -0.05       
N        N      0.243933333333     0.469700000000     0.265950000000     0.066      
N        N      0.148666666667     0.623166666667     0.069050000000    -0.041      
N        N      0.071566666667     0.396400000000     0.287300000000    -0.05       
N        N      0.243933333333     0.636366666667     0.484050000000     0.067      
N        N      0.148666666667     0.456500000000     0.180950000000    -0.042      
N        N      0.071566666667     0.563066666667     0.462700000000    -0.05       
N        N      0.089400000000     0.530300000000     0.234050000000     0.066      
N        N      0.184666666667     0.376833333333     0.430950000000    -0.041      
N        N      0.261766666667     0.603600000000     0.212700000000    -0.05       
O        O      0.117666666667     0.385100000000     0.041000000000    -0.28       
O        O      0.098800000000     0.372800000000     0.481550000000    -0.258      
O        O      0.146400000000     0.447833333333     0.429500000000    -0.448      
O        O      0.158166666667     0.507566666667     0.457400000000    -0.575      
O        O      0.195866666667     0.561000000000     0.285350000000    -0.304      
O        O      0.090466666667     0.448766666667     0.007550000000    -0.478      
O        O      0.096566666667     0.513633333333     0.023850000000    -0.488      
O        O      0.215433333333     0.424833333333     0.041050000000    -0.309      
O        O      0.056066666667     0.335033333333     0.024500000000    -0.105      
O        O      0.215666666667     0.448233333333     0.291000000000    -0.28       
O        O      0.234533333333     0.460533333333     0.231550000000    -0.256      
O        O      0.186933333333     0.385500000000     0.179500000000    -0.448      
O        O      0.175166666667     0.659100000000     0.207400000000    -0.576      
O        O      0.137466666667     0.605666666667     0.035350000000    -0.305      
O        O      0.242866666667     0.384566666667     0.257550000000    -0.479      
O        O      0.236766666667     0.653033333333     0.273850000000    -0.487      
O        O      0.117900000000     0.408500000000     0.291050000000    -0.309      
O        O      0.277266666667     0.498300000000     0.274500000000    -0.106      
O        O      0.215666666667     0.614900000000     0.459000000000    -0.28       
O        O      0.234533333333     0.627200000000     0.018450000000    -0.258      
O        O      0.186933333333     0.552166666667     0.070500000000    -0.448      
O        O      0.175166666667     0.492433333333     0.042600000000    -0.575      
O        O      0.137466666667     0.439000000000     0.214650000000    -0.304      
O        O      0.242866666667     0.551233333333     0.492450000000    -0.478      
O        O      0.236766666667     0.486366666667     0.476150000000    -0.488      
O        O      0.117900000000     0.575166666667     0.458950000000    -0.309      
O        O      0.277266666667     0.664966666667     0.475500000000    -0.105      
O        O      0.117666666667     0.551766666667     0.209000000000    -0.28       
O        O      0.098800000000     0.539466666667     0.268450000000    -0.256      
O        O      0.146400000000     0.614500000000     0.320500000000    -0.448      
O        O      0.158166666667     0.340900000000     0.292600000000    -0.576      
O        O      0.195866666667     0.394333333333     0.464650000000    -0.305      
O        O      0.090466666667     0.615433333333     0.242450000000    -0.479      
O        O      0.096566666667     0.346966666667     0.226150000000    -0.487      
O        O      0.215433333333     0.591500000000     0.208950000000    -0.309      
O        O      0.056066666667     0.501700000000     0.225500000000    -0.106      
Eu       Eu     0.163533333333     0.439650000000     0.996360000000     2.101      
Eu       Eu     0.169800000000     0.393683333333     0.746360000000     2.1        
Eu       Eu     0.169800000000     0.560350000000     0.503640000000     2.101      
Eu       Eu     0.163533333333     0.606316666667     0.753640000000     2.1        
H        H      0.133600000000     0.455133333333     0.857450000000     0.069      
H        H      0.149466666667     0.487766666667     0.799300000000     0.052      
H        H      0.215000000000     0.594466666667     0.848950000000     0.049      
H        H      0.196366666667     0.564766666667     0.908300000000     0.041      
H        H      0.006133333333     0.403800000000     0.504300000000     0.08       
H        H      0.260266666667     0.384533333333     0.513100000000     0.069      
H        H      0.275133333333     0.490766666667     0.562750000000     0.038      
H        H      0.021066666667     0.512966666667     0.553500000000     0.058      
H        H      0.199733333333     0.378200000000     0.607450000000     0.066      
H        H      0.183866666667     0.345566666667     0.549300000000     0.056      
H        H      0.118333333333     0.572200000000     0.598950000000     0.049      
H        H      0.136966666667     0.601900000000     0.658300000000     0.04       
H        H      0.327200000000     0.429533333333     0.754300000000     0.076      
H        H      0.073066666667     0.448800000000     0.763100000000     0.07       
H        H      0.058200000000     0.342566666667     0.812750000000     0.037      
H        H      0.312266666667     0.653700000000     0.803500000000     0.062      
H        H      0.199733333333     0.544866666667     0.642550000000     0.069      
H        H      0.183866666667     0.512233333333     0.700700000000     0.052      
H        H      0.118333333333     0.405533333333     0.651050000000     0.049      
H        H      0.136966666667     0.435233333333     0.591700000000     0.041      
H        H      0.327200000000     0.596200000000     0.995700000000     0.08       
H        H      0.073066666667     0.615466666667     0.986900000000     0.069      
H        H      0.058200000000     0.509233333333     0.937250000000     0.038      
H        H      0.312266666667     0.487033333333     0.946500000000     0.058      
H        H      0.133600000000     0.621800000000     0.892550000000     0.066      
H        H      0.149466666667     0.654433333333     0.950700000000     0.056      
H        H      0.215000000000     0.427800000000     0.901050000000     0.049      
H        H      0.196366666667     0.398100000000     0.841700000000     0.04       
H        H      0.006133333333     0.570466666667     0.745700000000     0.076      
H        H      0.260266666667     0.551200000000     0.736900000000     0.07       
H        H      0.275133333333     0.657433333333     0.687250000000     0.037      
H        H      0.021066666667     0.346300000000     0.696500000000     0.062      
C        C      0.154000000000     0.485833333333     0.928000000000     0.423      
C        C      0.163800000000     0.506666666667     0.889450000000    -0.089      
C        C      0.149700000000     0.483400000000     0.856100000000    -0.023      
C        C      0.159866666667     0.502866666667     0.821500000000     0.036      
C        C      0.198233333333     0.566366666667     0.850950000000     0.017      
C        C      0.187600000000     0.548633333333     0.886450000000    -0.007      
C        C      0.074300000000     0.475533333333     0.519100000000     0.45       
C        C      0.023233333333     0.461033333333     0.527250000000    -0.088      
C        C      0.327033333333     0.422133333333     0.515700000000    -0.02       
C        C      0.279666666667     0.410533333333     0.520900000000     0.019      
C        C      0.288566666667     0.473800000000     0.550200000000     0.019      
C        C      0.002666666667     0.486866666667     0.545100000000    -0.021      
C        C      0.179333333333     0.347500000000     0.678000000000     0.426      
C        C      0.169533333333     0.660000000000     0.639450000000    -0.094      
C        C      0.183633333333     0.349933333333     0.606100000000    -0.015      
C        C      0.173466666667     0.663800000000     0.571500000000     0.027      
C        C      0.135100000000     0.600300000000     0.600950000000     0.015      
C        C      0.145733333333     0.618033333333     0.636450000000    -0.003      
C        C      0.259033333333     0.357800000000     0.769100000000     0.448      
C        C      0.310100000000     0.372300000000     0.777250000000    -0.089      
C        C      0.006300000000     0.411200000000     0.765700000000    -0.014      
C        C      0.053666666667     0.422800000000     0.770900000000     0.016      
C        C      0.044766666667     0.359533333333     0.800200000000     0.024      
C        C      0.330666666667     0.346466666667     0.795100000000    -0.029      
C        C      0.179333333333     0.514166666667     0.572000000000     0.423      
C        C      0.169533333333     0.493333333333     0.610550000000    -0.089      
C        C      0.183633333333     0.516600000000     0.643900000000    -0.023      
C        C      0.173466666667     0.497133333333     0.678500000000     0.036      
C        C      0.135100000000     0.433633333333     0.649050000000     0.017      
C        C      0.145733333333     0.451366666667     0.613550000000    -0.007      
C        C      0.259033333333     0.524466666667     0.980900000000     0.45       
C        C      0.310100000000     0.538966666667     0.972750000000    -0.088      
C        C      0.006300000000     0.577866666667     0.984300000000    -0.02       
C        C      0.053666666667     0.589466666667     0.979100000000     0.019      
C        C      0.044766666667     0.526200000000     0.949800000000     0.019      
C        C      0.330666666667     0.513133333333     0.954900000000    -0.021      
C        C      0.154000000000     0.652500000000     0.822000000000     0.426      
C        C      0.163800000000     0.340000000000     0.860550000000    -0.094      
C        C      0.149700000000     0.650066666667     0.893900000000    -0.015      
C        C      0.159866666667     0.336200000000     0.928500000000     0.027      
C        C      0.198233333333     0.399700000000     0.899050000000     0.015      
C        C      0.187600000000     0.381966666667     0.863550000000    -0.003      
C        C      0.074300000000     0.642200000000     0.730900000000     0.448      
C        C      0.023233333333     0.627700000000     0.722750000000    -0.089      
C        C      0.327033333333     0.588800000000     0.734300000000    -0.014      
C        C      0.279666666667     0.577200000000     0.729100000000     0.016      
C        C      0.288566666667     0.640466666667     0.699800000000     0.024      
C        C      0.002666666667     0.653533333333     0.704900000000    -0.029      
N        N      0.089400000000     0.363633333333     0.515950000000     0.067      
N        N      0.184666666667     0.543500000000     0.819050000000    -0.042      
N        N      0.261766666667     0.436933333333     0.537300000000    -0.05       
N        N      0.243933333333     0.469700000000     0.765950000000     0.066      
N        N      0.148666666667     0.623166666667     0.569050000000    -0.041      
N        N      0.071566666667     0.396400000000     0.787300000000    -0.05       
N        N      0.243933333333     0.636366666667     0.984050000000     0.067      
N        N      0.148666666667     0.456500000000     0.680950000000    -0.042      
N        N      0.071566666667     0.563066666667     0.962700000000    -0.05       
N        N      0.089400000000     0.530300000000     0.734050000000     0.066      
N        N      0.184666666667     0.376833333333     0.930950000000    -0.041      
N        N      0.261766666667     0.603600000000     0.712700000000    -0.05       
O        O      0.117666666667     0.385100000000     0.541000000000    -0.28       
O        O      0.098800000000     0.372800000000     0.981550000000    -0.258      
O        O      0.146400000000     0.447833333333     0.929500000000    -0.448      
O        O      0.158166666667     0.507566666667     0.957400000000    -0.575      
O        O      0.195866666667     0.561000000000     0.785350000000    -0.304      
O        O      0.090466666667     0.448766666667     0.507550000000    -0.478      
O        O      0.096566666667     0.513633333333     0.523850000000    -0.488      
O        O      0.215433333333     0.424833333333     0.541050000000    -0.309      
O        O      0.056066666667     0.335033333333     0.524500000000    -0.105      
O        O      0.215666666667     0.448233333333     0.791000000000    -0.28       
O        O      0.234533333333     0.460533333333     0.731550000000    -0.256      
O        O      0.186933333333     0.385500000000     0.679500000000    -0.448      
O        O      0.175166666667     0.659100000000     0.707400000000    -0.576      
O        O      0.137466666667     0.605666666667     0.535350000000    -0.305      
O        O      0.242866666667     0.384566666667     0.757550000000    -0.479      
O        O      0.236766666667     0.653033333333     0.773850000000    -0.487      
O        O      0.117900000000     0.408500000000     0.791050000000    -0.309      
O        O      0.277266666667     0.498300000000     0.774500000000    -0.106      
O        O      0.215666666667     0.614900000000     0.959000000000    -0.28       
O        O      0.234533333333     0.627200000000     0.518450000000    -0.258      
O        O      0.186933333333     0.552166666667     0.570500000000    -0.448      
O        O      0.175166666667     0.492433333333     0.542600000000    -0.575      
O        O      0.137466666667     0.439000000000     0.714650000000    -0.304      
O        O      0.242866666667     0.551233333333     0.992450000000    -0.478      
O        O      0.236766666667     0.486366666667     0.976150000000    -0.488      
O        O      0.117900000000     0.575166666667     0.958950000000    -0.309      
O        O      0.277266666667     0.664966666667     0.975500000000    -0.105      
O        O      0.117666666667     0.551766666667     0.709000000000    -0.28       
O        O      0.098800000000     0.539466666667     0.768450000000    -0.256      
O        O      0.146400000000     0.614500000000     0.820500000000    -0.448      
O        O      0.158166666667     0.340900000000     0.792600000000    -0.576      
O        O      0.195866666667     0.394333333333     0.964650000000    -0.305      
O        O      0.090466666667     0.615433333333     0.742450000000    -0.479      
O        O      0.096566666667     0.346966666667     0.726150000000    -0.487      
O        O      0.215433333333     0.591500000000     0.708950000000    -0.309      
O        O      0.056066666667     0.501700000000     0.725500000000    -0.106      
Eu       Eu     0.163533333333     0.772983333333     0.496360000000     2.101      
Eu       Eu     0.169800000000     0.727016666667     0.246360000000     2.1        
Eu       Eu     0.169800000000     0.893683333333     0.003640000000     2.101      
Eu       Eu     0.163533333333     0.939650000000     0.253640000000     2.1        
H        H      0.133600000000     0.788466666667     0.357450000000     0.069      
H        H      0.149466666667     0.821100000000     0.299300000000     0.052      
H        H      0.215000000000     0.927800000000     0.348950000000     0.049      
H        H      0.196366666667     0.898100000000     0.408300000000     0.041      
H        H      0.006133333333     0.737133333333     0.004300000000     0.08       
H        H      0.260266666667     0.717866666667     0.013100000000     0.069      
H        H      0.275133333333     0.824100000000     0.062750000000     0.038      
H        H      0.021066666667     0.846300000000     0.053500000000     0.058      
H        H      0.199733333333     0.711533333333     0.107450000000     0.066      
H        H      0.183866666667     0.678900000000     0.049300000000     0.056      
H        H      0.118333333333     0.905533333333     0.098950000000     0.049      
H        H      0.136966666667     0.935233333333     0.158300000000     0.04       
H        H      0.327200000000     0.762866666667     0.254300000000     0.076      
H        H      0.073066666667     0.782133333333     0.263100000000     0.07       
H        H      0.058200000000     0.675900000000     0.312750000000     0.037      
H        H      0.312266666667     0.987033333333     0.303500000000     0.062      
H        H      0.199733333333     0.878200000000     0.142550000000     0.069      
H        H      0.183866666667     0.845566666667     0.200700000000     0.052      
H        H      0.118333333333     0.738866666667     0.151050000000     0.049      
H        H      0.136966666667     0.768566666667     0.091700000000     0.041      
H        H      0.327200000000     0.929533333333     0.495700000000     0.08       
H        H      0.073066666667     0.948800000000     0.486900000000     0.069      
H        H      0.058200000000     0.842566666667     0.437250000000     0.038      
H        H      0.312266666667     0.820366666667     0.446500000000     0.058      
H        H      0.133600000000     0.955133333333     0.392550000000     0.066      
H        H      0.149466666667     0.987766666667     0.450700000000     0.056      
H        H      0.215000000000     0.761133333333     0.401050000000     0.049      
H        H      0.196366666667     0.731433333333     0.341700000000     0.04       
H        H      0.006133333333     0.903800000000     0.245700000000     0.076      
H        H      0.260266666667     0.884533333333     0.236900000000     0.07       
H        H      0.275133333333     0.990766666667     0.187250000000     0.037      
H        H      0.021066666667     0.679633333333     0.196500000000     0.062      
C        C      0.154000000000     0.819166666667     0.428000000000     0.423      
C        C      0.163800000000     0.840000000000     0.389450000000    -0.089      
C        C      0.149700000000     0.816733333333     0.356100000000    -0.023      
C        C      0.159866666667     0.836200000000     0.321500000000     0.036      
C        C      0.198233333333     0.899700000000     0.350950000000     0.017      
C        C      0.187600000000     0.881966666667     0.386450000000    -0.007      
C        C      0.074300000000     0.808866666667     0.019100000000     0.45       
C        C      0.023233333333     0.794366666667     0.027250000000    -0.088      
C        C      0.327033333333     0.755466666667     0.015700000000    -0.02       
C        C      0.279666666667     0.743866666667     0.020900000000     0.019      
C        C      0.288566666667     0.807133333333     0.050200000000     0.019      
C        C      0.002666666667     0.820200000000     0.045100000000    -0.021      
C        C      0.179333333333     0.680833333333     0.178000000000     0.426      
C        C      0.169533333333     0.993333333333     0.139450000000    -0.094      
C        C      0.183633333333     0.683266666667     0.106100000000    -0.015      
C        C      0.173466666667     0.997133333333     0.071500000000     0.027      
C        C      0.135100000000     0.933633333333     0.100950000000     0.015      
C        C      0.145733333333     0.951366666667     0.136450000000    -0.003      
C        C      0.259033333333     0.691133333333     0.269100000000     0.448      
C        C      0.310100000000     0.705633333333     0.277250000000    -0.089      
C        C      0.006300000000     0.744533333333     0.265700000000    -0.014      
C        C      0.053666666667     0.756133333333     0.270900000000     0.016      
C        C      0.044766666667     0.692866666667     0.300200000000     0.024      
C        C      0.330666666667     0.679800000000     0.295100000000    -0.029      
C        C      0.179333333333     0.847500000000     0.072000000000     0.423      
C        C      0.169533333333     0.826666666667     0.110550000000    -0.089      
C        C      0.183633333333     0.849933333333     0.143900000000    -0.023      
C        C      0.173466666667     0.830466666667     0.178500000000     0.036      
C        C      0.135100000000     0.766966666667     0.149050000000     0.017      
C        C      0.145733333333     0.784700000000     0.113550000000    -0.007      
C        C      0.259033333333     0.857800000000     0.480900000000     0.45       
C        C      0.310100000000     0.872300000000     0.472750000000    -0.088      
C        C      0.006300000000     0.911200000000     0.484300000000    -0.02       
C        C      0.053666666667     0.922800000000     0.479100000000     0.019      
C        C      0.044766666667     0.859533333333     0.449800000000     0.019      
C        C      0.330666666667     0.846466666667     0.454900000000    -0.021      
C        C      0.154000000000     0.985833333333     0.322000000000     0.426      
C        C      0.163800000000     0.673333333333     0.360550000000    -0.094      
C        C      0.149700000000     0.983400000000     0.393900000000    -0.015      
C        C      0.159866666667     0.669533333333     0.428500000000     0.027      
C        C      0.198233333333     0.733033333333     0.399050000000     0.015      
C        C      0.187600000000     0.715300000000     0.363550000000    -0.003      
C        C      0.074300000000     0.975533333333     0.230900000000     0.448      
C        C      0.023233333333     0.961033333333     0.222750000000    -0.089      
C        C      0.327033333333     0.922133333333     0.234300000000    -0.014      
C        C      0.279666666667     0.910533333333     0.229100000000     0.016      
C        C      0.288566666667     0.973800000000     0.199800000000     0.024      
C        C      0.002666666667     0.986866666667     0.204900000000    -0.029      
N        N      0.089400000000     0.696966666667     0.015950000000     0.067      
N        N      0.184666666667     0.876833333333     0.319050000000    -0.042      
N        N      0.261766666667     0.770266666667     0.037300000000    -0.05       
N        N      0.243933333333     0.803033333333     0.265950000000     0.066      
N        N      0.148666666667     0.956500000000     0.069050000000    -0.041      
N        N      0.071566666667     0.729733333333     0.287300000000    -0.05       
N        N      0.243933333333     0.969700000000     0.484050000000     0.067      
N        N      0.148666666667     0.789833333333     0.180950000000    -0.042      
N        N      0.071566666667     0.896400000000     0.462700000000    -0.05       
N        N      0.089400000000     0.863633333333     0.234050000000     0.066      
N        N      0.184666666667     0.710166666667     0.430950000000    -0.041      
N        N      0.261766666667     0.936933333333     0.212700000000    -0.05       
O        O      0.117666666667     0.718433333333     0.041000000000    -0.28       
O        O      0.098800000000     0.706133333333     0.481550000000    -0.258      
O        O      0.146400000000     0.781166666667     0.429500000000    -0.448      
O        O      0.158166666667     0.840900000000     0.457400000000    -0.575      
O        O      0.195866666667     0.894333333333     0.285350000000    -0.304      
O        O      0.090466666667     0.782100000000     0.007550000000    -0.478      
O        O      0.096566666667     0.846966666667     0.023850000000    -0.488      
O        O      0.215433333333     0.758166666667     0.041050000000    -0.309      
O        O      0.056066666667     0.668366666667     0.024500000000    -0.105      
O        O      0.215666666667     0.781566666667     0.291000000000    -0.28       
O        O      0.234533333333     0.793866666667     0.231550000000    -0.256      
O        O      0.186933333333     0.718833333333     0.179500000000    -0.448      
O        O      0.175166666667     0.992433333333     0.207400000000    -0.576      
O        O      0.137466666667     0.939000000000     0.035350000000    -0.305      
O        O      0.242866666667     0.717900000000     0.257550000000    -0.479      
O        O      0.236766666667     0.986366666667     0.273850000000    -0.487      
O        O      0.117900000000     0.741833333333     0.291050000000    -0.309      
O        O      0.277266666667     0.831633333333     0.274500000000    -0.106      
O        O      0.215666666667     0.948233333333     0.459000000000    -0.28       
O        O      0.234533333333     0.960533333333     0.018450000000    -0.258      
O        O      0.186933333333     0.885500000000     0.070500000000    -0.448      
O        O      0.175166666667     0.825766666667     0.042600000000    -0.575      
O        O      0.137466666667     0.772333333333     0.214650000000    -0.304      
O        O      0.242866666667     0.884566666667     0.492450000000    -0.478      
O        O      0.236766666667     0.819700000000     0.476150000000    -0.488      
O        O      0.117900000000     0.908500000000     0.458950000000    -0.309      
O        O      0.277266666667     0.998300000000     0.475500000000    -0.105      
O        O      0.117666666667     0.885100000000     0.209000000000    -0.28       
O        O      0.098800000000     0.872800000000     0.268450000000    -0.256      
O        O      0.146400000000     0.947833333333     0.320500000000    -0.448      
O        O      0.158166666667     0.674233333333     0.292600000000    -0.576      
O        O      0.195866666667     0.727666666667     0.464650000000    -0.305      
O        O      0.090466666667     0.948766666667     0.242450000000    -0.479      
O        O      0.096566666667     0.680300000000     0.226150000000    -0.487      
O        O      0.215433333333     0.924833333333     0.208950000000    -0.309      
O        O      0.056066666667     0.835033333333     0.225500000000    -0.106      
Eu       Eu     0.163533333333     0.772983333333     0.996360000000     2.101      
Eu       Eu     0.169800000000     0.727016666667     0.746360000000     2.1        
Eu       Eu     0.169800000000     0.893683333333     0.503640000000     2.101      
Eu       Eu     0.163533333333     0.939650000000     0.753640000000     2.1        
H        H      0.133600000000     0.788466666667     0.857450000000     0.069      
H        H      0.149466666667     0.821100000000     0.799300000000     0.052      
H        H      0.215000000000     0.927800000000     0.848950000000     0.049      
H        H      0.196366666667     0.898100000000     0.908300000000     0.041      
H        H      0.006133333333     0.737133333333     0.504300000000     0.08       
H        H      0.260266666667     0.717866666667     0.513100000000     0.069      
H        H      0.275133333333     0.824100000000     0.562750000000     0.038      
H        H      0.021066666667     0.846300000000     0.553500000000     0.058      
H        H      0.199733333333     0.711533333333     0.607450000000     0.066      
H        H      0.183866666667     0.678900000000     0.549300000000     0.056      
H        H      0.118333333333     0.905533333333     0.598950000000     0.049      
H        H      0.136966666667     0.935233333333     0.658300000000     0.04       
H        H      0.327200000000     0.762866666667     0.754300000000     0.076      
H        H      0.073066666667     0.782133333333     0.763100000000     0.07       
H        H      0.058200000000     0.675900000000     0.812750000000     0.037      
H        H      0.312266666667     0.987033333333     0.803500000000     0.062      
H        H      0.199733333333     0.878200000000     0.642550000000     0.069      
H        H      0.183866666667     0.845566666667     0.700700000000     0.052      
H        H      0.118333333333     0.738866666667     0.651050000000     0.049      
H        H      0.136966666667     0.768566666667     0.591700000000     0.041      
H        H      0.327200000000     0.929533333333     0.995700000000     0.08       
H        H      0.073066666667     0.948800000000     0.986900000000     0.069      
H        H      0.058200000000     0.842566666667     0.937250000000     0.038      
H        H      0.312266666667     0.820366666667     0.946500000000     0.058      
H        H      0.133600000000     0.955133333333     0.892550000000     0.066      
H        H      0.149466666667     0.987766666667     0.950700000000     0.056      
H        H      0.215000000000     0.761133333333     0.901050000000     0.049      
H        H      0.196366666667     0.731433333333     0.841700000000     0.04       
H        H      0.006133333333     0.903800000000     0.745700000000     0.076      
H        H      0.260266666667     0.884533333333     0.736900000000     0.07       
H        H      0.275133333333     0.990766666667     0.687250000000     0.037      
H        H      0.021066666667     0.679633333333     0.696500000000     0.062      
C        C      0.154000000000     0.819166666667     0.928000000000     0.423      
C        C      0.163800000000     0.840000000000     0.889450000000    -0.089      
C        C      0.149700000000     0.816733333333     0.856100000000    -0.023      
C        C      0.159866666667     0.836200000000     0.821500000000     0.036      
C        C      0.198233333333     0.899700000000     0.850950000000     0.017      
C        C      0.187600000000     0.881966666667     0.886450000000    -0.007      
C        C      0.074300000000     0.808866666667     0.519100000000     0.45       
C        C      0.023233333333     0.794366666667     0.527250000000    -0.088      
C        C      0.327033333333     0.755466666667     0.515700000000    -0.02       
C        C      0.279666666667     0.743866666667     0.520900000000     0.019      
C        C      0.288566666667     0.807133333333     0.550200000000     0.019      
C        C      0.002666666667     0.820200000000     0.545100000000    -0.021      
C        C      0.179333333333     0.680833333333     0.678000000000     0.426      
C        C      0.169533333333     0.993333333333     0.639450000000    -0.094      
C        C      0.183633333333     0.683266666667     0.606100000000    -0.015      
C        C      0.173466666667     0.997133333333     0.571500000000     0.027      
C        C      0.135100000000     0.933633333333     0.600950000000     0.015      
C        C      0.145733333333     0.951366666667     0.636450000000    -0.003      
C        C      0.259033333333     0.691133333333     0.769100000000     0.448      
C        C      0.310100000000     0.705633333333     0.777250000000    -0.089      
C        C      0.006300000000     0.744533333333     0.765700000000    -0.014      
C        C      0.053666666667     0.756133333333     0.770900000000     0.016      
C        C      0.044766666667     0.692866666667     0.800200000000     0.024      
C        C      0.330666666667     0.679800000000     0.795100000000    -0.029      
C        C      0.179333333333     0.847500000000     0.572000000000     0.423      
C        C      0.169533333333     0.826666666667     0.610550000000    -0.089      
C        C      0.183633333333     0.849933333333     0.643900000000    -0.023      
C        C      0.173466666667     0.830466666667     0.678500000000     0.036      
C        C      0.135100000000     0.766966666667     0.649050000000     0.017      
C        C      0.145733333333     0.784700000000     0.613550000000    -0.007      
C        C      0.259033333333     0.857800000000     0.980900000000     0.45       
C        C      0.310100000000     0.872300000000     0.972750000000    -0.088      
C        C      0.006300000000     0.911200000000     0.984300000000    -0.02       
C        C      0.053666666667     0.922800000000     0.979100000000     0.019      
C        C      0.044766666667     0.859533333333     0.949800000000     0.019      
C        C      0.330666666667     0.846466666667     0.954900000000    -0.021      
C        C      0.154000000000     0.985833333333     0.822000000000     0.426      
C        C      0.163800000000     0.673333333333     0.860550000000    -0.094      
C        C      0.149700000000     0.983400000000     0.893900000000    -0.015      
C        C      0.159866666667     0.669533333333     0.928500000000     0.027      
C        C      0.198233333333     0.733033333333     0.899050000000     0.015      
C        C      0.187600000000     0.715300000000     0.863550000000    -0.003      
C        C      0.074300000000     0.975533333333     0.730900000000     0.448      
C        C      0.023233333333     0.961033333333     0.722750000000    -0.089      
C        C      0.327033333333     0.922133333333     0.734300000000    -0.014      
C        C      0.279666666667     0.910533333333     0.729100000000     0.016      
C        C      0.288566666667     0.973800000000     0.699800000000     0.024      
C        C      0.002666666667     0.986866666667     0.704900000000    -0.029      
N        N      0.089400000000     0.696966666667     0.515950000000     0.067      
N        N      0.184666666667     0.876833333333     0.819050000000    -0.042      
N        N      0.261766666667     0.770266666667     0.537300000000    -0.05       
N        N      0.243933333333     0.803033333333     0.765950000000     0.066      
N        N      0.148666666667     0.956500000000     0.569050000000    -0.041      
N        N      0.071566666667     0.729733333333     0.787300000000    -0.05       
N        N      0.243933333333     0.969700000000     0.984050000000     0.067      
N        N      0.148666666667     0.789833333333     0.680950000000    -0.042      
N        N      0.071566666667     0.896400000000     0.962700000000    -0.05       
N        N      0.089400000000     0.863633333333     0.734050000000     0.066      
N        N      0.184666666667     0.710166666667     0.930950000000    -0.041      
N        N      0.261766666667     0.936933333333     0.712700000000    -0.05       
O        O      0.117666666667     0.718433333333     0.541000000000    -0.28       
O        O      0.098800000000     0.706133333333     0.981550000000    -0.258      
O        O      0.146400000000     0.781166666667     0.929500000000    -0.448      
O        O      0.158166666667     0.840900000000     0.957400000000    -0.575      
O        O      0.195866666667     0.894333333333     0.785350000000    -0.304      
O        O      0.090466666667     0.782100000000     0.507550000000    -0.478      
O        O      0.096566666667     0.846966666667     0.523850000000    -0.488      
O        O      0.215433333333     0.758166666667     0.541050000000    -0.309      
O        O      0.056066666667     0.668366666667     0.524500000000    -0.105      
O        O      0.215666666667     0.781566666667     0.791000000000    -0.28       
O        O      0.234533333333     0.793866666667     0.731550000000    -0.256      
O        O      0.186933333333     0.718833333333     0.679500000000    -0.448      
O        O      0.175166666667     0.992433333333     0.707400000000    -0.576      
O        O      0.137466666667     0.939000000000     0.535350000000    -0.305      
O        O      0.242866666667     0.717900000000     0.757550000000    -0.479      
O        O      0.236766666667     0.986366666667     0.773850000000    -0.487      
O        O      0.117900000000     0.741833333333     0.791050000000    -0.309      
O        O      0.277266666667     0.831633333333     0.774500000000    -0.106      
O        O      0.215666666667     0.948233333333     0.959000000000    -0.28       
O        O      0.234533333333     0.960533333333     0.518450000000    -0.258      
O        O      0.186933333333     0.885500000000     0.570500000000    -0.448      
O        O      0.175166666667     0.825766666667     0.542600000000    -0.575      
O        O      0.137466666667     0.772333333333     0.714650000000    -0.304      
O        O      0.242866666667     0.884566666667     0.992450000000    -0.478      
O        O      0.236766666667     0.819700000000     0.976150000000    -0.488      
O        O      0.117900000000     0.908500000000     0.958950000000    -0.309      
O        O      0.277266666667     0.998300000000     0.975500000000    -0.105      
O        O      0.117666666667     0.885100000000     0.709000000000    -0.28       
O        O      0.098800000000     0.872800000000     0.768450000000    -0.256      
O        O      0.146400000000     0.947833333333     0.820500000000    -0.448      
O        O      0.158166666667     0.674233333333     0.792600000000    -0.576      
O        O      0.195866666667     0.727666666667     0.964650000000    -0.305      
O        O      0.090466666667     0.948766666667     0.742450000000    -0.479      
O        O      0.096566666667     0.680300000000     0.726150000000    -0.487      
O        O      0.215433333333     0.924833333333     0.708950000000    -0.309      
O        O      0.056066666667     0.835033333333     0.725500000000    -0.106      
Eu       Eu     0.496866666667     0.106316666667     0.496360000000     2.101      
Eu       Eu     0.503133333333     0.060350000000     0.246360000000     2.1        
Eu       Eu     0.503133333333     0.227016666667     0.003640000000     2.101      
Eu       Eu     0.496866666667     0.272983333333     0.253640000000     2.1        
H        H      0.466933333333     0.121800000000     0.357450000000     0.069      
H        H      0.482800000000     0.154433333333     0.299300000000     0.052      
H        H      0.548333333333     0.261133333333     0.348950000000     0.049      
H        H      0.529700000000     0.231433333333     0.408300000000     0.041      
H        H      0.339466666667     0.070466666667     0.004300000000     0.08       
H        H      0.593600000000     0.051200000000     0.013100000000     0.069      
H        H      0.608466666667     0.157433333333     0.062750000000     0.038      
H        H      0.354400000000     0.179633333333     0.053500000000     0.058      
H        H      0.533066666667     0.044866666667     0.107450000000     0.066      
H        H      0.517200000000     0.012233333333     0.049300000000     0.056      
H        H      0.451666666667     0.238866666667     0.098950000000     0.049      
H        H      0.470300000000     0.268566666667     0.158300000000     0.04       
H        H      0.660533333333     0.096200000000     0.254300000000     0.076      
H        H      0.406400000000     0.115466666667     0.263100000000     0.07       
H        H      0.391533333333     0.009233333333     0.312750000000     0.037      
H        H      0.645600000000     0.320366666667     0.303500000000     0.062      
H        H      0.533066666667     0.211533333333     0.142550000000     0.069      
H        H      0.517200000000     0.178900000000     0.200700000000     0.052      
H        H      0.451666666667     0.072200000000     0.151050000000     0.049      
H        H      0.470300000000     0.101900000000     0.091700000000     0.041      
H        H      0.660533333333     0.262866666667     0.495700000000     0.08       
H        H      0.406400000000     0.282133333333     0.486900000000     0.069      
H        H      0.391533333333     0.175900000000     0.437250000000     0.038      
H        H      0.645600000000     0.153700000000     0.446500000000     0.058      
H        H      0.466933333333     0.288466666667     0.392550000000     0.066      
H        H      0.482800000000     0.321100000000     0.450700000000     0.056      
H        H      0.548333333333     0.094466666667     0.401050000000     0.049      
H        H      0.529700000000     0.064766666667     0.341700000000     0.04       
H        H      0.339466666667     0.237133333333     0.245700000000     0.076      
H        H      0.593600000000     0.217866666667     0.236900000000     0.07       
H        H      0.608466666667     0.324100000000     0.187250000000     0.037      
H        H      0.354400000000     0.012966666667     0.196500000000     0.062      
C        C      0.487333333333     0.152500000000     0.428000000000     0.423      
C        C      0.497133333333     0.173333333333     0.389450000000    -0.089      
C        C      0.483033333333     0.150066666667     0.356100000000    -0.023      
C        C      0.493200000000     0.169533333333     0.321500000000     0.036      
C        C      0.531566666667     0.233033333333     0.350950000000     0.017      
C        C      0.520933333333     0.215300000000     0.386450000000    -0.007      
C        C      0.407633333333     0.142200000000     0.019100000000     0.45       
C        C      0.356566666667     0.127700000000     0.027250000000    -0.088      
C        C      0.660366666667     0.088800000000     0.015700000000    -0.02       
C        C      0.613000000000     0.077200000000     0.020900000000     0.019      
C        C      0.621900000000     0.140466666667     0.050200000000     0.019      
C        C      0.336000000000     0.153533333333     0.045100000000    -0.021      
C        C      0.512666666667     0.014166666667     0.178000000000     0.426      
C        C      0.502866666667     0.326666666667     0.139450000000    -0.094      
C        C      0.516966666667     0.016600000000     0.106100000000    -0.015      
C        C      0.506800000000     0.330466666667     0.071500000000     0.027      
C        C      0.468433333333     0.266966666667     0.100950000000     0.015      
C        C      0.479066666667     0.284700000000     0.136450000000    -0.003      
C        C      0.592366666667     0.024466666667     0.269100000000     0.448      
C        C      0.643433333333     0.038966666667     0.277250000000    -0.089      
C        C      0.339633333333     0.077866666667     0.265700000000    -0.014      
C        C      0.387000000000     0.089466666667     0.270900000000     0.016      
C        C      0.378100000000     0.026200000000     0.300200000000     0.024      
C        C      0.664000000000     0.013133333333     0.295100000000    -0.029      
C        C      0.512666666667     0.180833333333     0.072000000000     0.423      
C        C      0.502866666667     0.160000000000     0.110550000000    -0.089      
C        C      0.516966666667     0.183266666667     0.143900000000    -0.023      
C        C      0.506800000000     0.163800000000     0.178500000000     0.036      
C        C      0.468433333333     0.100300000000     0.149050000000     0.017      
C        C      0.479066666667     0.118033333333     0.113550000000    -0.007      
C        C      0.592366666667     0.191133333333     0.480900000000     0.45       
C        C      0.643433333333     0.205633333333     0.472750000000    -0.088      
C        C      0.339633333333     0.244533333333     0.484300000000    -0.02       
C        C      0.387000000000     0.256133333333     0.479100000000     0.019      
C        C      0.378100000000     0.192866666667     0.449800000000     0.019      
C        C      0.664000000000     0.179800000000     0.454900000000    -0.021      
C        C      0.487333333333     0.319166666667     0.322000000000     0.426      
C        C      0.497133333333     0.006666666667     0.360550000000    -0.094      
C        C      0.483033333333     0.316733333333     0.393900000000    -0.015      
C        C      0.493200000000     0.002866666667     0.428500000000     0.027      
C        C      0.531566666667     0.066366666667     0.399050000000     0.015      
C        C      0.520933333333     0.048633333333     0.363550000000    -0.003      
C        C      0.407633333333     0.308866666667     0.230900000000     0.448      
C        C      0.356566666667     0.294366666667     0.222750000000    -0.089      
C        C      0.660366666667     0.255466666667     0.234300000000    -0.014      
C        C      0.613000000000     0.243866666667     0.229100000000     0.016      
C        C      0.621900000000     0.307133333333     0.199800000000     0.024      
C        C      0.336000000000     0.320200000000     0.204900000000    -0.029      
N        N      0.422733333333     0.030300000000     0.015950000000     0.067      
N        N      0.518000000000     0.210166666667     0.319050000000    -0.042      
N        N      0.595100000000     0.103600000000     0.037300000000    -0.05       
N        N      0.577266666667     0.136366666667     0.265950000000     0.066      
N        N      0.482000000000     0.289833333333     0.069050000000    -0.041      
N        N      0.404900000000     0.063066666667     0.287300000000    -0.05       
N        N      0.577266666667     0.303033333333     0.484050000000     0.067      
N        N      0.482000000000     0.123166666667     0.180950000000    -0.042      
N        N      0.404900000000     0.229733333333     0.462700000000    -0.05       
N        N      0.422733333333     0.196966666667     0.234050000000     0.066      
N        N      0.518000000000     0.043500000000     0.430950000000    -0.041      
N        N      0.595100000000     0.270266666667     0.212700000000    -0.05       
O        O      0.451000000000     0.051766666667     0.041000000000    -0.28       
O        O      0.432133333333     0.039466666667     0.481550000000    -0.258      
O        O      0.479733333333     0.114500000000     0.429500000000    -0.448      
O        O      0.491500000000     0.174233333333     0.457400000000    -0.575      
O        O      0.529200000000     0.227666666667     0.285350000000    -0.304      
O        O      0.423800000000     0.115433333333     0.007550000000    -0.478      
O        O      0.429900000000     0.180300000000     0.023850000000    -0.488      
O        O      0.548766666667     0.091500000000     0.041050000000    -0.309      
O        O      0.389400000000     0.001700000000     0.024500000000    -0.105      
O        O      0.549000000000     0.114900000000     0.291000000000    -0.28       
O        O      0.567866666667     0.127200000000     0.231550000000    -0.256      
O        O      0.520266666667     0.052166666667     0.179500000000    -0.448      
O        O      0.508500000000     0.325766666667     0.207400000000    -0.576      
O        O      0.470800000000     0.272333333333     0.035350000000    -0.305      
O        O      0.576200000000     0.051233333333     0.257550000000    -0.479      
O        O      0.570100000000     0.319700000000     0.273850000000    -0.487      
O        O      0.451233333333     0.075166666667     0.291050000000    -0.309      
O        O      0.610600000000     0.164966666667     0.274500000000    -0.106      
O        O      0.549000000000     0.281566666667     0.459000000000    -0.28       
O        O      0.567866666667     0.293866666667     0.018450000000    -0.258      
O        O      0.520266666667     0.218833333333     0.070500000000    -0.448      
O        O      0.508500000000     0.159100000000     0.042600000000    -0.575      
O        O      0.470800000000     0.105666666667     0.214650000000    -0.304      
O        O      0.576200000000     0.217900000000     0.492450000000    -0.478      
O        O      0.570100000000     0.153033333333     0.476150000000    -0.488      
O        O      0.451233333333     0.241833333333     0.458950000000    -0.309      
O        O      0.610600000000     0.331633333333     0.475500000000    -0.105      
O        O      0.451000000000     0.218433333333     0.209000000000    -0.28       
O        O      0.432133333333     0.206133333333     0.268450000000    -0.256      
O        O      0.479733333333     0.281166666667     0.320500000000    -0.448      
O        O      0.491500000000     0.007566666667     0.292600000000    -0.576      
O        O      0.529200000000     0.061000000000     0.464650000000    -0.305      
O        O      0.423800000000     0.282100000000     0.242450000000    -0.479      
O        O      0.429900000000     0.013633333333     0.226150000000    -0.487      
O        O      0.548766666667     0.258166666667     0.208950000000    -0.309      
O        O      0.389400000000     0.168366666667     0.225500000000    -0.106      
Eu       Eu     0.496866666667     0.106316666667     0.996360000000     2.101      
Eu       Eu     0.503133333333     0.060350000000     0.746360000000     2.1        
Eu       Eu     0.503133333333     0.227016666667     0.503640000000     2.101      
Eu       Eu     0.496866666667     0.272983333333     0.753640000000     2.1        
H        H      0.466933333333     0.121800000000     0.857450000000     0.069      
H        H      0.482800000000     0.154433333333     0.799300000000     0.052      
H        H      0.548333333333     0.261133333333     0.848950000000     0.049      
H        H      0.529700000000     0.231433333333     0.908300000000     0.041      
H        H      0.339466666667     0.070466666667     0.504300000000     0.08       
H        H      0.593600000000     0.051200000000     0.513100000000     0.069      
H        H      0.608466666667     0.157433333333     0.562750000000     0.038      
H        H      0.354400000000     0.179633333333     0.553500000000     0.058      
H        H      0.533066666667     0.044866666667     0.607450000000     0.066      
H        H      0.517200000000     0.012233333333     0.549300000000     0.056      
H        H      0.451666666667     0.238866666667     0.598950000000     0.049      
H        H      0.470300000000     0.268566666667     0.658300000000     0.04       
H        H      0.660533333333     0.096200000000     0.754300000000     0.076      
H        H      0.406400000000     0.115466666667     0.763100000000     0.07       
H        H      0.391533333333     0.009233333333     0.812750000000     0.037      
H        H      0.645600000000     0.320366666667     0.803500000000     0.062      
H        H      0.533066666667     0.211533333333     0.642550000000     0.069      
H        H      0.517200000000     0.178900000000     0.700700000000     0.052      
H        H      0.451666666667     0.072200000000     0.651050000000     0.049      
H        H      0.470300000000     0.101900000000     0.591700000000     0.041      
H        H      0.660533333333     0.262866666667     0.995700000000     0.08       
H        H      0.406400000000     0.282133333333     0.986900000000     0.069      
H        H      0.391533333333     0.175900000000     0.937250000000     0.038      
H        H      0.645600000000     0.153700000000     0.946500000000     0.058      
H        H      0.466933333333     0.288466666667     0.892550000000     0.066      
H        H      0.482800000000     0.321100000000     0.950700000000     0.056      
H        H      0.548333333333     0.094466666667     0.901050000000     0.049      
H        H      0.529700000000     0.064766666667     0.841700000000     0.04       
H        H      0.339466666667     0.237133333333     0.745700000000     0.076      
H        H      0.593600000000     0.217866666667     0.736900000000     0.07       
H        H      0.608466666667     0.324100000000     0.687250000000     0.037      
H        H      0.354400000000     0.012966666667     0.696500000000     0.062      
C        C      0.487333333333     0.152500000000     0.928000000000     0.423      
C        C      0.497133333333     0.173333333333     0.889450000000    -0.089      
C        C      0.483033333333     0.150066666667     0.856100000000    -0.023      
C        C      0.493200000000     0.169533333333     0.821500000000     0.036      
C        C      0.531566666667     0.233033333333     0.850950000000     0.017      
C        C      0.520933333333     0.215300000000     0.886450000000    -0.007      
C        C      0.407633333333     0.142200000000     0.519100000000     0.45       
C        C      0.356566666667     0.127700000000     0.527250000000    -0.088      
C        C      0.660366666667     0.088800000000     0.515700000000    -0.02       
C        C      0.613000000000     0.077200000000     0.520900000000     0.019      
C        C      0.621900000000     0.140466666667     0.550200000000     0.019      
C        C      0.336000000000     0.153533333333     0.545100000000    -0.021      
C        C      0.512666666667     0.014166666667     0.678000000000     0.426      
C        C      0.502866666667     0.326666666667     0.639450000000    -0.094      
C        C      0.516966666667     0.016600000000     0.606100000000    -0.015      
C        C      0.506800000000     0.330466666667     0.571500000000     0.027      
C        C      0.468433333333     0.266966666667     0.600950000000     0.015      
C        C      0.479066666667     0.284700000000     0.636450000000    -0.003      
C        C      0.592366666667     0.024466666667     0.769100000000     0.448      
C        C      0.643433333333     0.038966666667     0.777250000000    -0.089      
C        C      0.339633333333     0.077866666667     0.765700000000    -0.014      
C        C      0.387000000000     0.089466666667     0.770900000000     0.016      
C        C      0.378100000000     0.026200000000     0.800200000000     0.024      
C        C      0.664000000000     0.013133333333     0.795100000000    -0.029      
C        C      0.512666666667     0.180833333333     0.572000000000     0.423      
C        C      0.502866666667     0.160000000000     0.610550000000    -0.089      
C        C      0.516966666667     0.183266666667     0.643900000000    -0.023      
C        C      0.506800000000     0.163800000000     0.678500000000     0.036      
C        C      0.468433333333     0.100300000000     0.649050000000     0.017      
C        C      0.479066666667     0.118033333333     0.613550000000    -0.007      
C        C      0.592366666667     0.191133333333     0.980900000000     0.45       
C        C      0.643433333333     0.205633333333     0.972750000000    -0.088      
C        C      0.339633333333     0.244533333333     0.984300000000    -0.02       
C        C      0.387000000000     0.256133333333     0.979100000000     0.019      
C        C      0.378100000000     0.192866666667     0.949800000000     0.019      
C        C      0.664000000000     0.179800000000     0.954900000000    -0.021      
C        C      0.487333333333     0.319166666667     0.822000000000     0.426      
C        C      0.497133333333     0.006666666667     0.860550000000    -0.094      
C        C      0.483033333333     0.316733333333     0.893900000000    -0.015      
C        C      0.493200000000     0.002866666667     0.928500000000     0.027      
C        C      0.531566666667     0.066366666667     0.899050000000     0.015      
C        C      0.520933333333     0.048633333333     0.863550000000    -0.003      
C        C      0.407633333333     0.308866666667     0.730900000000     0.448      
C        C      0.356566666667     0.294366666667     0.722750000000    -0.089      
C        C      0.660366666667     0.255466666667     0.734300000000    -0.014      
C        C      0.613000000000     0.243866666667     0.729100000000     0.016      
C        C      0.621900000000     0.307133333333     0.699800000000     0.024      
C        C      0.336000000000     0.320200000000     0.704900000000    -0.029      
N        N      0.422733333333     0.030300000000     0.515950000000     0.067      
N        N      0.518000000000     0.210166666667     0.819050000000    -0.042      
N        N      0.595100000000     0.103600000000     0.537300000000    -0.05       
N        N      0.577266666667     0.136366666667     0.765950000000     0.066      
N        N      0.482000000000     0.289833333333     0.569050000000    -0.041      
N        N      0.404900000000     0.063066666667     0.787300000000    -0.05       
N        N      0.577266666667     0.303033333333     0.984050000000     0.067      
N        N      0.482000000000     0.123166666667     0.680950000000    -0.042      
N        N      0.404900000000     0.229733333333     0.962700000000    -0.05       
N        N      0.422733333333     0.196966666667     0.734050000000     0.066      
N        N      0.518000000000     0.043500000000     0.930950000000    -0.041      
N        N      0.595100000000     0.270266666667     0.712700000000    -0.05       
O        O      0.451000000000     0.051766666667     0.541000000000    -0.28       
O        O      0.432133333333     0.039466666667     0.981550000000    -0.258      
O        O      0.479733333333     0.114500000000     0.929500000000    -0.448      
O        O      0.491500000000     0.174233333333     0.957400000000    -0.575      
O        O      0.529200000000     0.227666666667     0.785350000000    -0.304      
O        O      0.423800000000     0.115433333333     0.507550000000    -0.478      
O        O      0.429900000000     0.180300000000     0.523850000000    -0.488      
O        O      0.548766666667     0.091500000000     0.541050000000    -0.309      
O        O      0.389400000000     0.001700000000     0.524500000000    -0.105      
O        O      0.549000000000     0.114900000000     0.791000000000    -0.28       
O        O      0.567866666667     0.127200000000     0.731550000000    -0.256      
O        O      0.520266666667     0.052166666667     0.679500000000    -0.448      
O        O      0.508500000000     0.325766666667     0.707400000000    -0.576      
O        O      0.470800000000     0.272333333333     0.535350000000    -0.305      
O        O      0.576200000000     0.051233333333     0.757550000000    -0.479      
O        O      0.570100000000     0.319700000000     0.773850000000    -0.487      
O        O      0.451233333333     0.075166666667     0.791050000000    -0.309      
O        O      0.610600000000     0.164966666667     0.774500000000    -0.106      
O        O      0.549000000000     0.281566666667     0.959000000000    -0.28       
O        O      0.567866666667     0.293866666667     0.518450000000    -0.258      
O        O      0.520266666667     0.218833333333     0.570500000000    -0.448      
O        O      0.508500000000     0.159100000000     0.542600000000    -0.575      
O        O      0.470800000000     0.105666666667     0.714650000000    -0.304      
O        O      0.576200000000     0.217900000000     0.992450000000    -0.478      
O        O      0.570100000000     0.153033333333     0.976150000000    -0.488      
O        O      0.451233333333     0.241833333333     0.958950000000    -0.309      
O        O      0.610600000000     0.331633333333     0.975500000000    -0.105      
O        O      0.451000000000     0.218433333333     0.709000000000    -0.28       
O        O      0.432133333333     0.206133333333     0.768450000000    -0.256      
O        O      0.479733333333     0.281166666667     0.820500000000    -0.448      
O        O      0.491500000000     0.007566666667     0.792600000000    -0.576      
O        O      0.529200000000     0.061000000000     0.964650000000    -0.305      
O        O      0.423800000000     0.282100000000     0.742450000000    -0.479      
O        O      0.429900000000     0.013633333333     0.726150000000    -0.487      
O        O      0.548766666667     0.258166666667     0.708950000000    -0.309      
O        O      0.389400000000     0.168366666667     0.725500000000    -0.106      
Eu       Eu     0.496866666667     0.439650000000     0.496360000000     2.101      
Eu       Eu     0.503133333333     0.393683333333     0.246360000000     2.1        
Eu       Eu     0.503133333333     0.560350000000     0.003640000000     2.101      
Eu       Eu     0.496866666667     0.606316666667     0.253640000000     2.1        
H        H      0.466933333333     0.455133333333     0.357450000000     0.069      
H        H      0.482800000000     0.487766666667     0.299300000000     0.052      
H        H      0.548333333333     0.594466666667     0.348950000000     0.049      
H        H      0.529700000000     0.564766666667     0.408300000000     0.041      
H        H      0.339466666667     0.403800000000     0.004300000000     0.08       
H        H      0.593600000000     0.384533333333     0.013100000000     0.069      
H        H      0.608466666667     0.490766666667     0.062750000000     0.038      
H        H      0.354400000000     0.512966666667     0.053500000000     0.058      
H        H      0.533066666667     0.378200000000     0.107450000000     0.066      
H        H      0.517200000000     0.345566666667     0.049300000000     0.056      
H        H      0.451666666667     0.572200000000     0.098950000000     0.049      
H        H      0.470300000000     0.601900000000     0.158300000000     0.04       
H        H      0.660533333333     0.429533333333     0.254300000000     0.076      
H        H      0.406400000000     0.448800000000     0.263100000000     0.07       
H        H      0.391533333333     0.342566666667     0.312750000000     0.037      
H        H      0.645600000000     0.653700000000     0.303500000000     0.062      
H        H      0.533066666667     0.544866666667     0.142550000000     0.069      
H        H      0.517200000000     0.512233333333     0.200700000000     0.052      
H        H      0.451666666667     0.405533333333     0.151050000000     0.049      
H        H      0.470300000000     0.435233333333     0.091700000000     0.041      
H        H      0.660533333333     0.596200000000     0.495700000000     0.08       
H        H      0.406400000000     0.615466666667     0.486900000000     0.069      
H        H      0.391533333333     0.509233333333     0.437250000000     0.038      
H        H      0.645600000000     0.487033333333     0.446500000000     0.058      
H        H      0.466933333333     0.621800000000     0.392550000000     0.066      
H        H      0.482800000000     0.654433333333     0.450700000000     0.056      
H        H      0.548333333333     0.427800000000     0.401050000000     0.049      
H        H      0.529700000000     0.398100000000     0.341700000000     0.04       
H        H      0.339466666667     0.570466666667     0.245700000000     0.076      
H        H      0.593600000000     0.551200000000     0.236900000000     0.07       
H        H      0.608466666667     0.657433333333     0.187250000000     0.037      
H        H      0.354400000000     0.346300000000     0.196500000000     0.062      
C        C      0.487333333333     0.485833333333     0.428000000000     0.423      
C        C      0.497133333333     0.506666666667     0.389450000000    -0.089      
C        C      0.483033333333     0.483400000000     0.356100000000    -0.023      
C        C      0.493200000000     0.502866666667     0.321500000000     0.036      
C        C      0.531566666667     0.566366666667     0.350950000000     0.017      
C        C      0.520933333333     0.548633333333     0.386450000000    -0.007      
C        C      0.407633333333     0.475533333333     0.019100000000     0.45       
C        C      0.356566666667     0.461033333333     0.027250000000    -0.088      
C        C      0.660366666667     0.422133333333     0.015700000000    -0.02       
C        C      0.613000000000     0.410533333333     0.020900000000     0.019      
C        C      0.621900000000     0.473800000000     0.050200000000     0.019      
C        C      0.336000000000     0.486866666667     0.045100000000    -0.021      
C        C      0.512666666667     0.347500000000     0.178000000000     0.426      
C        C      0.502866666667     0.660000000000     0.139450000000    -0.094      
C        C      0.516966666667     0.349933333333     0.106100000000    -0.015      
C        C      0.506800000000     0.663800000000     0.071500000000     0.027      
C        C      0.468433333333     0.600300000000     0.100950000000     0.015      
C        C      0.479066666667     0.618033333333     0.136450000000    -0.003      
C        C      0.592366666667     0.357800000000     0.269100000000     0.448      
C        C      0.643433333333     0.372300000000     0.277250000000    -0.089      
C        C      0.339633333333     0.411200000000     0.265700000000    -0.014      
C        C      0.387000000000     0.422800000000     0.270900000000     0.016      
C        C      0.378100000000     0.359533333333     0.300200000000     0.024      
C        C      0.664000000000     0.346466666667     0.295100000000    -0.029      
C        C      0.512666666667     0.514166666667     0.072000000000     0.423      
C        C      0.502866666667     0.493333333333     0.110550000000    -0.089      
C        C      0.516966666667     0.516600000000     0.143900000000    -0.023      
C        C      0.506800000000     0.497133333333     0.178500000000     0.036      
C        C      0.468433333333     0.433633333333     0.149050000000     0.017      
C        C      0.479066666667     0.451366666667     0.113550000000    -0.007      
C        C      0.592366666667     0.524466666667     0.480900000000     0.45       
C        C      0.643433333333     0.538966666667     0.472750000000    -0.088      
C        C      0.339633333333     0.577866666667     0.484300000000    -0.02       
C        C      0.387000000000     0.589466666667     0.479100000000     0.019      
C        C      0.378100000000     0.526200000000     0.449800000000     0.019      
C        C      0.664000000000     0.513133333333     0.454900000000    -0.021      
C        C      0.487333333333     0.652500000000     0.322000000000     0.426      
C        C      0.497133333333     0.340000000000     0.360550000000    -0.094      
C        C      0.483033333333     0.650066666667     0.393900000000    -0.015      
C        C      0.493200000000     0.336200000000     0.428500000000     0.027      
C        C      0.531566666667     0.399700000000     0.399050000000     0.015      
C        C      0.520933333333     0.381966666667     0.363550000000    -0.003      
C        C      0.407633333333     0.642200000000     0.230900000000     0.448      
C        C      0.356566666667     0.627700000000     0.222750000000    -0.089      
C        C      0.660366666667     0.588800000000     0.234300000000    -0.014      
C        C      0.613000000000     0.577200000000     0.229100000000     0.016      
C        C      0.621900000000     0.640466666667     0.199800000000     0.024      
C        C      0.336000000000     0.653533333333     0.204900000000    -0.029      
N        N      0.422733333333     0.363633333333     0.015950000000     0.067      
N        N      0.518000000000     0.543500000000     0.319050000000    -0.042      
N        N      0.595100000000     0.436933333333     0.037300000000    -0.05       
N        N      0.577266666667     0.469700000000     0.265950000000     0.066      
N        N      0.482000000000     0.623166666667     0.069050000000    -0.041      
N        N      0.404900000000     0.396400000000     0.287300000000    -0.05       
N        N      0.577266666667     0.636366666667     0.484050000000     0.067      
N        N      0.482000000000     0.456500000000     0.180950000000    -0.042      
N        N      0.404900000000     0.563066666667     0.462700000000    -0.05       
N        N      0.422733333333     0.530300000000     0.234050000000     0.066      
N        N      0.518000000000     0.376833333333     0.430950000000    -0.041      
N        N      0.595100000000     0.603600000000     0.212700000000    -0.05       
O        O      0.451000000000     0.385100000000     0.041000000000    -0.28       
O        O      0.432133333333     0.372800000000     0.481550000000    -0.258      
O        O      0.479733333333     0.447833333333     0.429500000000    -0.448      
O        O      0.491500000000     0.507566666667     0.457400000000    -0.575      
O        O      0.529200000000     0.561000000000     0.285350000000    -0.304      
O        O      0.423800000000     0.448766666667     0.007550000000    -0.478      
O        O      0.429900000000     0.513633333333     0.023850000000    -0.488      
O        O      0.548766666667     0.424833333333     0.041050000000    -0.309      
O        O      0.389400000000     0.335033333333     0.024500000000    -0.105      
O        O      0.549000000000     0.448233333333     0.291000000000    -0.28       
O        O      0.567866666667     0.460533333333     0.231550000000    -0.256      
O        O      0.520266666667     0.385500000000     0.179500000000    -0.448      
O        O      0.508500000000     0.659100000000     0.207400000000    -0.576      
O        O      0.470800000000     0.605666666667     0.035350000000    -0.305      
O        O      0.576200000000     0.384566666667     0.257550000000    -0.479      
O        O      0.570100000000     0.653033333333     0.273850000000    -0.487      
O        O      0.451233333333     0.408500000000     0.291050000000    -0.309      
O        O      0.610600000000     0.498300000000     0.274500000000    -0.106      
O        O      0.549000000000     0.614900000000     0.459000000000    -0.28       
O        O      0.567866666667     0.627200000000     0.018450000000    -0.258      
O        O      0.520266666667     0.552166666667     0.070500000000    -0.448      
O        O      0.508500000000     0.492433333333     0.042600000000    -0.575      
O        O      0.470800000000     0.439000000000     0.214650000000    -0.304      
O        O      0.576200000000     0.551233333333     0.492450000000    -0.478      
O        O      0.570100000000     0.486366666667     0.476150000000    -0.488      
O        O      0.451233333333     0.575166666667     0.458950000000    -0.309      
O        O      0.610600000000     0.664966666667     0.475500000000    -0.105      
O        O      0.451000000000     0.551766666667     0.209000000000    -0.28       
O        O      0.432133333333     0.539466666667     0.268450000000    -0.256      
O        O      0.479733333333     0.614500000000     0.320500000000    -0.448      
O        O      0.491500000000     0.340900000000     0.292600000000    -0.576      
O        O      0.529200000000     0.394333333333     0.464650000000    -0.305      
O        O      0.423800000000     0.615433333333     0.242450000000    -0.479      
O        O      0.429900000000     0.346966666667     0.226150000000    -0.487      
O        O      0.548766666667     0.591500000000     0.208950000000    -0.309      
O        O      0.389400000000     0.501700000000     0.225500000000    -0.106      
Eu       Eu     0.496866666667     0.439650000000     0.996360000000     2.101      
Eu       Eu     0.503133333333     0.393683333333     0.746360000000     2.1        
Eu       Eu     0.503133333333     0.560350000000     0.503640000000     2.101      
Eu       Eu     0.496866666667     0.606316666667     0.753640000000     2.1        
H        H      0.466933333333     0.455133333333     0.857450000000     0.069      
H        H      0.482800000000     0.487766666667     0.799300000000     0.052      
H        H      0.548333333333     0.594466666667     0.848950000000     0.049      
H        H      0.529700000000     0.564766666667     0.908300000000     0.041      
H        H      0.339466666667     0.403800000000     0.504300000000     0.08       
H        H      0.593600000000     0.384533333333     0.513100000000     0.069      
H        H      0.608466666667     0.490766666667     0.562750000000     0.038      
H        H      0.354400000000     0.512966666667     0.553500000000     0.058      
H        H      0.533066666667     0.378200000000     0.607450000000     0.066      
H        H      0.517200000000     0.345566666667     0.549300000000     0.056      
H        H      0.451666666667     0.572200000000     0.598950000000     0.049      
H        H      0.470300000000     0.601900000000     0.658300000000     0.04       
H        H      0.660533333333     0.429533333333     0.754300000000     0.076      
H        H      0.406400000000     0.448800000000     0.763100000000     0.07       
H        H      0.391533333333     0.342566666667     0.812750000000     0.037      
H        H      0.645600000000     0.653700000000     0.803500000000     0.062      
H        H      0.533066666667     0.544866666667     0.642550000000     0.069      
H        H      0.517200000000     0.512233333333     0.700700000000     0.052      
H        H      0.451666666667     0.405533333333     0.651050000000     0.049      
H        H      0.470300000000     0.435233333333     0.591700000000     0.041      
H        H      0.660533333333     0.596200000000     0.995700000000     0.08       
H        H      0.406400000000     0.615466666667     0.986900000000     0.069      
H        H      0.391533333333     0.509233333333     0.937250000000     0.038      
H        H      0.645600000000     0.487033333333     0.946500000000     0.058      
H        H      0.466933333333     0.621800000000     0.892550000000     0.066      
H        H      0.482800000000     0.654433333333     0.950700000000     0.056      
H        H      0.548333333333     0.427800000000     0.901050000000     0.049      
H        H      0.529700000000     0.398100000000     0.841700000000     0.04       
H        H      0.339466666667     0.570466666667     0.745700000000     0.076      
H        H      0.593600000000     0.551200000000     0.736900000000     0.07       
H        H      0.608466666667     0.657433333333     0.687250000000     0.037      
H        H      0.354400000000     0.346300000000     0.696500000000     0.062      
C        C      0.487333333333     0.485833333333     0.928000000000     0.423      
C        C      0.497133333333     0.506666666667     0.889450000000    -0.089      
C        C      0.483033333333     0.483400000000     0.856100000000    -0.023      
C        C      0.493200000000     0.502866666667     0.821500000000     0.036      
C        C      0.531566666667     0.566366666667     0.850950000000     0.017      
C        C      0.520933333333     0.548633333333     0.886450000000    -0.007      
C        C      0.407633333333     0.475533333333     0.519100000000     0.45       
C        C      0.356566666667     0.461033333333     0.527250000000    -0.088      
C        C      0.660366666667     0.422133333333     0.515700000000    -0.02       
C        C      0.613000000000     0.410533333333     0.520900000000     0.019      
C        C      0.621900000000     0.473800000000     0.550200000000     0.019      
C        C      0.336000000000     0.486866666667     0.545100000000    -0.021      
C        C      0.512666666667     0.347500000000     0.678000000000     0.426      
C        C      0.502866666667     0.660000000000     0.639450000000    -0.094      
C        C      0.516966666667     0.349933333333     0.606100000000    -0.015      
C        C      0.506800000000     0.663800000000     0.571500000000     0.027      
C        C      0.468433333333     0.600300000000     0.600950000000     0.015      
C        C      0.479066666667     0.618033333333     0.636450000000    -0.003      
C        C      0.592366666667     0.357800000000     0.769100000000     0.448      
C        C      0.643433333333     0.372300000000     0.777250000000    -0.089      
C        C      0.339633333333     0.411200000000     0.765700000000    -0.014      
C        C      0.387000000000     0.422800000000     0.770900000000     0.016      
C        C      0.378100000000     0.359533333333     0.800200000000     0.024      
C        C      0.664000000000     0.346466666667     0.795100000000    -0.029      
C        C      0.512666666667     0.514166666667     0.572000000000     0.423      
C        C      0.502866666667     0.493333333333     0.610550000000    -0.089      
C        C      0.516966666667     0.516600000000     0.643900000000    -0.023      
C        C      0.506800000000     0.497133333333     0.678500000000     0.036      
C        C      0.468433333333     0.433633333333     0.649050000000     0.017      
C        C      0.479066666667     0.451366666667     0.613550000000    -0.007      
C        C      0.592366666667     0.524466666667     0.980900000000     0.45       
C        C      0.643433333333     0.538966666667     0.972750000000    -0.088      
C        C      0.339633333333     0.577866666667     0.984300000000    -0.02       
C        C      0.387000000000     0.589466666667     0.979100000000     0.019      
C        C      0.378100000000     0.526200000000     0.949800000000     0.019      
C        C      0.664000000000     0.513133333333     0.954900000000    -0.021      
C        C      0.487333333333     0.652500000000     0.822000000000     0.426      
C        C      0.497133333333     0.340000000000     0.860550000000    -0.094      
C        C      0.483033333333     0.650066666667     0.893900000000    -0.015      
C        C      0.493200000000     0.336200000000     0.928500000000     0.027      
C        C      0.531566666667     0.399700000000     0.899050000000     0.015      
C        C      0.520933333333     0.381966666667     0.863550000000    -0.003      
C        C      0.407633333333     0.642200000000     0.730900000000     0.448      
C        C      0.356566666667     0.627700000000     0.722750000000    -0.089      
C        C      0.660366666667     0.588800000000     0.734300000000    -0.014      
C        C      0.613000000000     0.577200000000     0.729100000000     0.016      
C        C      0.621900000000     0.640466666667     0.699800000000     0.024      
C        C      0.336000000000     0.653533333333     0.704900000000    -0.029      
N        N      0.422733333333     0.363633333333     0.515950000000     0.067      
N        N      0.518000000000     0.543500000000     0.819050000000    -0.042      
N        N      0.595100000000     0.436933333333     0.537300000000    -0.05       
N        N      0.577266666667     0.469700000000     0.765950000000     0.066      
N        N      0.482000000000     0.623166666667     0.569050000000    -0.041      
N        N      0.404900000000     0.396400000000     0.787300000000    -0.05       
N        N      0.577266666667     0.636366666667     0.984050000000     0.067      
N        N      0.482000000000     0.456500000000     0.680950000000    -0.042      
N        N      0.404900000000     0.563066666667     0.962700000000    -0.05       
N        N      0.422733333333     0.530300000000     0.734050000000     0.066      
N        N      0.518000000000     0.376833333333     0.930950000000    -0.041      
N        N      0.595100000000     0.603600000000     0.712700000000    -0.05       
O        O      0.451000000000     0.385100000000     0.541000000000    -0.28       
O        O      0.432133333333     0.372800000000     0.981550000000    -0.258      
O        O      0.479733333333     0.447833333333     0.929500000000    -0.448      
O        O      0.491500000000     0.507566666667     0.957400000000    -0.575      
O        O      0.529200000000     0.561000000000     0.785350000000    -0.304      
O        O      0.423800000000     0.448766666667     0.507550000000    -0.478      
O        O      0.429900000000     0.513633333333     0.523850000000    -0.488      
O        O      0.548766666667     0.424833333333     0.541050000000    -0.309      
O        O      0.389400000000     0.335033333333     0.524500000000    -0.105      
O        O      0.549000000000     0.448233333333     0.791000000000    -0.28       
O        O      0.567866666667     0.460533333333     0.731550000000    -0.256      
O        O      0.520266666667     0.385500000000     0.679500000000    -0.448      
O        O      0.508500000000     0.659100000000     0.707400000000    -0.576      
O        O      0.470800000000     0.605666666667     0.535350000000    -0.305      
O        O      0.576200000000     0.384566666667     0.757550000000    -0.479      
O        O      0.570100000000     0.653033333333     0.773850000000    -0.487      
O        O      0.451233333333     0.408500000000     0.791050000000    -0.309      
O        O      0.610600000000     0.498300000000     0.774500000000    -0.106      
O        O      0.549000000000     0.614900000000     0.959000000000    -0.28       
O        O      0.567866666667     0.627200000000     0.518450000000    -0.258      
O        O      0.520266666667     0.552166666667     0.570500000000    -0.448      
O        O      0.508500000000     0.492433333333     0.542600000000    -0.575      
O        O      0.470800000000     0.439000000000     0.714650000000    -0.304      
O        O      0.576200000000     0.551233333333     0.992450000000    -0.478      
O        O      0.570100000000     0.486366666667     0.976150000000    -0.488      
O        O      0.451233333333     0.575166666667     0.958950000000    -0.309      
O        O      0.610600000000     0.664966666667     0.975500000000    -0.105      
O        O      0.451000000000     0.551766666667     0.709000000000    -0.28       
O        O      0.432133333333     0.539466666667     0.768450000000    -0.256      
O        O      0.479733333333     0.614500000000     0.820500000000    -0.448      
O        O      0.491500000000     0.340900000000     0.792600000000    -0.576      
O        O      0.529200000000     0.394333333333     0.964650000000    -0.305      
O        O      0.423800000000     0.615433333333     0.742450000000    -0.479      
O        O      0.429900000000     0.346966666667     0.726150000000    -0.487      
O        O      0.548766666667     0.591500000000     0.708950000000    -0.309      
O        O      0.389400000000     0.501700000000     0.725500000000    -0.106      
Eu       Eu     0.496866666667     0.772983333333     0.496360000000     2.101      
Eu       Eu     0.503133333333     0.727016666667     0.246360000000     2.1        
Eu       Eu     0.503133333333     0.893683333333     0.003640000000     2.101      
Eu       Eu     0.496866666667     0.939650000000     0.253640000000     2.1        
H        H      0.466933333333     0.788466666667     0.357450000000     0.069      
H        H      0.482800000000     0.821100000000     0.299300000000     0.052      
H        H      0.548333333333     0.927800000000     0.348950000000     0.049      
H        H      0.529700000000     0.898100000000     0.408300000000     0.041      
H        H      0.339466666667     0.737133333333     0.004300000000     0.08       
H        H      0.593600000000     0.717866666667     0.013100000000     0.069      
H        H      0.608466666667     0.824100000000     0.062750000000     0.038      
H        H      0.354400000000     0.846300000000     0.053500000000     0.058      
H        H      0.533066666667     0.711533333333     0.107450000000     0.066      
H        H      0.517200000000     0.678900000000     0.049300000000     0.056      
H        H      0.451666666667     0.905533333333     0.098950000000     0.049      
H        H      0.470300000000     0.935233333333     0.158300000000     0.04       
H        H      0.660533333333     0.762866666667     0.254300000000     0.076      
H        H      0.406400000000     0.782133333333     0.263100000000     0.07       
H        H      0.391533333333     0.675900000000     0.312750000000     0.037      
H        H      0.645600000000     0.987033333333     0.303500000000     0.062      
H        H      0.533066666667     0.878200000000     0.142550000000     0.069      
H        H      0.517200000000     0.845566666667     0.200700000000     0.052      
H        H      0.451666666667     0.738866666667     0.151050000000     0.049      
H        H      0.470300000000     0.768566666667     0.091700000000     0.041      
H        H      0.660533333333     0.929533333333     0.495700000000     0.08       
H        H      0.406400000000     0.948800000000     0.486900000000     0.069      
H        H      0.391533333333     0.842566666667     0.437250000000     0.038      
H        H      0.645600000000     0.820366666667     0.446500000000     0.058      
H        H      0.466933333333     0.955133333333     0.392550000000     0.066      
H        H      0.482800000000     0.987766666667     0.450700000000     0.056      
H        H      0.548333333333     0.761133333333     0.401050000000     0.049      
H        H      0.529700000000     0.731433333333     0.341700000000     0.04       
H        H      0.339466666667     0.903800000000     0.245700000000     0.076      
H        H      0.593600000000     0.884533333333     0.236900000000     0.07       
H        H      0.608466666667     0.990766666667     0.187250000000     0.037      
H        H      0.354400000000     0.679633333333     0.196500000000     0.062      
C        C      0.487333333333     0.819166666667     0.428000000000     0.423      
C        C      0.497133333333     0.840000000000     0.389450000000    -0.089      
C        C      0.483033333333     0.816733333333     0.356100000000    -0.023      
C        C      0.493200000000     0.836200000000     0.321500000000     0.036      
C        C      0.531566666667     0.899700000000     0.350950000000     0.017      
C        C      0.520933333333     0.881966666667     0.386450000000    -0.007      
C        C      0.407633333333     0.808866666667     0.019100000000     0.45       
C        C      0.356566666667     0.794366666667     0.027250000000    -0.088      
C        C      0.660366666667     0.755466666667     0.015700000000    -0.02       
C        C      0.613000000000     0.743866666667     0.020900000000     0.019      
C        C      0.621900000000     0.807133333333     0.050200000000     0.019      
C        C      0.336000000000     0.820200000000     0.045100000000    -0.021      
C        C      0.512666666667     0.680833333333     0.178000000000     0.426      
C        C      0.502866666667     0.993333333333     0.139450000000    -0.094      
C        C      0.516966666667     0.683266666667     0.106100000000    -0.015      
C        C      0.506800000000     0.997133333333     0.071500000000     0.027      
C        C      0.468433333333     0.933633333333     0.100950000000     0.015      
C        C      0.479066666667     0.951366666667     0.136450000000    -0.003      
C        C      0.592366666667     0.691133333333     0.269100000000     0.448      
C        C      0.643433333333     0.705633333333     0.277250000000    -0.089      
C        C      0.339633333333     0.744533333333     0.265700000000    -0.014      
C        C      0.387000000000     0.756133333333     0.270900000000     0.016      
C        C      0.378100000000     0.692866666667     0.300200000000     0.024      
C        C      0.664000000000     0.679800000000     0.295100000000    -0.029      
C        C      0.512666666667     0.847500000000     0.072000000000     0.423      
C        C      0.502866666667     0.826666666667     0.110550000000    -0.089      
C        C      0.516966666667     0.849933333333     0.143900000000    -0.023      
C        C      0.506800000000     0.830466666667     0.178500000000     0.036      
C        C      0.468433333333     0.766966666667     0.149050000000     0.017      
C        C      0.479066666667     0.784700000000     0.113550000000    -0.007      
C        C      0.592366666667     0.857800000000     0.480900000000     0.45       
C        C      0.643433333333     0.872300000000     0.472750000000    -0.088      
C        C      0.339633333333     0.911200000000     0.484300000000    -0.02       
C        C      0.387000000000     0.922800000000     0.479100000000     0.019      
C        C      0.378100000000     0.859533333333     0.449800000000     0.019      
C        C      0.664000000000     0.846466666667     0.454900000000    -0.021      
C        C      0.487333333333     0.985833333333     0.322000000000     0.426      
C        C      0.497133333333     0.673333333333     0.360550000000    -0.094      
C        C      0.483033333333     0.983400000000     0.393900000000    -0.015      
C        C      0.493200000000     0.669533333333     0.428500000000     0.027      
C        C      0.531566666667     0.733033333333     0.399050000000     0.015      
C        C      0.520933333333     0.715300000000     0.363550000000    -0.003      
C        C      0.407633333333     0.975533333333     0.230900000000     0.448      
C        C      0.356566666667     0.961033333333     0.222750000000    -0.089      
C        C      0.660366666667     0.922133333333     0.234300000000    -0.014      
C        C      0.613000000000     0.910533333333     0.229100000000     0.016      
C        C      0.621900000000     0.973800000000     0.199800000000     0.024      
C        C      0.336000000000     0.986866666667     0.204900000000    -0.029      
N        N      0.422733333333     0.696966666667     0.015950000000     0.067      
N        N      0.518000000000     0.876833333333     0.319050000000    -0.042      
N        N      0.595100000000     0.770266666667     0.037300000000    -0.05       
N        N      0.577266666667     0.803033333333     0.265950000000     0.066      
N        N      0.482000000000     0.956500000000     0.069050000000    -0.041      
N        N      0.404900000000     0.729733333333     0.287300000000    -0.05       
N        N      0.577266666667     0.969700000000     0.484050000000     0.067      
N        N      0.482000000000     0.789833333333     0.180950000000    -0.042      
N        N      0.404900000000     0.896400000000     0.462700000000    -0.05       
N        N      0.422733333333     0.863633333333     0.234050000000     0.066      
N        N      0.518000000000     0.710166666667     0.430950000000    -0.041      
N        N      0.595100000000     0.936933333333     0.212700000000    -0.05       
O        O      0.451000000000     0.718433333333     0.041000000000    -0.28       
O        O      0.432133333333     0.706133333333     0.481550000000    -0.258      
O        O      0.479733333333     0.781166666667     0.429500000000    -0.448      
O        O      0.491500000000     0.840900000000     0.457400000000    -0.575      
O        O      0.529200000000     0.894333333333     0.285350000000    -0.304      
O        O      0.423800000000     0.782100000000     0.007550000000    -0.478      
O        O      0.429900000000     0.846966666667     0.023850000000    -0.488      
O        O      0.548766666667     0.758166666667     0.041050000000    -0.309      
O        O      0.389400000000     0.668366666667     0.024500000000    -0.105      
O        O      0.549000000000     0.781566666667     0.291000000000    -0.28       
O        O      0.567866666667     0.793866666667     0.231550000000    -0.256      
O        O      0.520266666667     0.718833333333     0.179500000000    -0.448      
O        O      0.508500000000     0.992433333333     0.207400000000    -0.576      
O        O      0.470800000000     0.939000000000     0.035350000000    -0.305      
O        O      0.576200000000     0.717900000000     0.257550000000    -0.479      
O        O      0.570100000000     0.986366666667     0.273850000000    -0.487      
O        O      0.451233333333     0.741833333333     0.291050000000    -0.309      
O        O      0.610600000000     0.831633333333     0.274500000000    -0.106      
O        O      0.549000000000     0.948233333333     0.459000000000    -0.28       
O        O      0.567866666667     0.960533333333     0.018450000000    -0.258      
O        O      0.520266666667     0.885500000000     0.070500000000    -0.448      
O        O      0.508500000000     0.825766666667     0.042600000000    -0.575      
O        O      0.470800000000     0.772333333333     0.214650000000    -0.304      
O        O      0.576200000000     0.884566666667     0.492450000000    -0.478      
O        O      0.570100000000     0.819700000000     0.476150000000    -0.488      
O        O      0.451233333333     0.908500000000     0.458950000000    -0.309      
O        O      0.610600000000     0.998300000000     0.475500000000    -0.105      
O        O      0.451000000000     0.885100000000     0.209000000000    -0.28       
O        O      0.432133333333     0.872800000000     0.268450000000    -0.256      
O        O      0.479733333333     0.947833333333     0.320500000000    -0.448      
O        O      0.491500000000     0.674233333333     0.292600000000    -0.576      
O        O      0.529200000000     0.727666666667     0.464650000000    -0.305      
O        O      0.423800000000     0.948766666667     0.242450000000    -0.479      
O        O      0.429900000000     0.680300000000     0.226150000000    -0.487      
O        O      0.548766666667     0.924833333333     0.208950000000    -0.309      
O        O      0.389400000000     0.835033333333     0.225500000000    -0.106      
Eu       Eu     0.496866666667     0.772983333333     0.996360000000     2.101      
Eu       Eu     0.503133333333     0.727016666667     0.746360000000     2.1        
Eu       Eu     0.503133333333     0.893683333333     0.503640000000     2.101      
Eu       Eu     0.496866666667     0.939650000000     0.753640000000     2.1        
H        H      0.466933333333     0.788466666667     0.857450000000     0.069      
H        H      0.482800000000     0.821100000000     0.799300000000     0.052      
H        H      0.548333333333     0.927800000000     0.848950000000     0.049      
H        H      0.529700000000     0.898100000000     0.908300000000     0.041      
H        H      0.339466666667     0.737133333333     0.504300000000     0.08       
H        H      0.593600000000     0.717866666667     0.513100000000     0.069      
H        H      0.608466666667     0.824100000000     0.562750000000     0.038      
H        H      0.354400000000     0.846300000000     0.553500000000     0.058      
H        H      0.533066666667     0.711533333333     0.607450000000     0.066      
H        H      0.517200000000     0.678900000000     0.549300000000     0.056      
H        H      0.451666666667     0.905533333333     0.598950000000     0.049      
H        H      0.470300000000     0.935233333333     0.658300000000     0.04       
H        H      0.660533333333     0.762866666667     0.754300000000     0.076      
H        H      0.406400000000     0.782133333333     0.763100000000     0.07       
H        H      0.391533333333     0.675900000000     0.812750000000     0.037      
H        H      0.645600000000     0.987033333333     0.803500000000     0.062      
H        H      0.533066666667     0.878200000000     0.642550000000     0.069      
H        H      0.517200000000     0.845566666667     0.700700000000     0.052      
H        H      0.451666666667     0.738866666667     0.651050000000     0.049      
H        H      0.470300000000     0.768566666667     0.591700000000     0.041      
H        H      0.660533333333     0.929533333333     0.995700000000     0.08       
H        H      0.406400000000     0.948800000000     0.986900000000     0.069      
H        H      0.391533333333     0.842566666667     0.937250000000     0.038      
H        H      0.645600000000     0.820366666667     0.946500000000     0.058      
H        H      0.466933333333     0.955133333333     0.892550000000     0.066      
H        H      0.482800000000     0.987766666667     0.950700000000     0.056      
H        H      0.548333333333     0.761133333333     0.901050000000     0.049      
H        H      0.529700000000     0.731433333333     0.841700000000     0.04       
H        H      0.339466666667     0.903800000000     0.745700000000     0.076      
H        H      0.593600000000     0.884533333333     0.736900000000     0.07       
H        H      0.608466666667     0.990766666667     0.687250000000     0.037      
H        H      0.354400000000     0.679633333333     0.696500000000     0.062      
C        C      0.487333333333     0.819166666667     0.928000000000     0.423      
C        C      0.497133333333     0.840000000000     0.889450000000    -0.089      
C        C      0.483033333333     0.816733333333     0.856100000000    -0.023      
C        C      0.493200000000     0.836200000000     0.821500000000     0.036      
C        C      0.531566666667     0.899700000000     0.850950000000     0.017      
C        C      0.520933333333     0.881966666667     0.886450000000    -0.007      
C        C      0.407633333333     0.808866666667     0.519100000000     0.45       
C        C      0.356566666667     0.794366666667     0.527250000000    -0.088      
C        C      0.660366666667     0.755466666667     0.515700000000    -0.02       
C        C      0.613000000000     0.743866666667     0.520900000000     0.019      
C        C      0.621900000000     0.807133333333     0.550200000000     0.019      
C        C      0.336000000000     0.820200000000     0.545100000000    -0.021      
C        C      0.512666666667     0.680833333333     0.678000000000     0.426      
C        C      0.502866666667     0.993333333333     0.639450000000    -0.094      
C        C      0.516966666667     0.683266666667     0.606100000000    -0.015      
C        C      0.506800000000     0.997133333333     0.571500000000     0.027      
C        C      0.468433333333     0.933633333333     0.600950000000     0.015      
C        C      0.479066666667     0.951366666667     0.636450000000    -0.003      
C        C      0.592366666667     0.691133333333     0.769100000000     0.448      
C        C      0.643433333333     0.705633333333     0.777250000000    -0.089      
C        C      0.339633333333     0.744533333333     0.765700000000    -0.014      
C        C      0.387000000000     0.756133333333     0.770900000000     0.016      
C        C      0.378100000000     0.692866666667     0.800200000000     0.024      
C        C      0.664000000000     0.679800000000     0.795100000000    -0.029      
C        C      0.512666666667     0.847500000000     0.572000000000     0.423      
C        C      0.502866666667     0.826666666667     0.610550000000    -0.089      
C        C      0.516966666667     0.849933333333     0.643900000000    -0.023      
C        C      0.506800000000     0.830466666667     0.678500000000     0.036      
C        C      0.468433333333     0.766966666667     0.649050000000     0.017      
C        C      0.479066666667     0.784700000000     0.613550000000    -0.007      
C        C      0.592366666667     0.857800000000     0.980900000000     0.45       
C        C      0.643433333333     0.872300000000     0.972750000000    -0.088      
C        C      0.339633333333     0.911200000000     0.984300000000    -0.02       
C        C      0.387000000000     0.922800000000     0.979100000000     0.019      
C        C      0.378100000000     0.859533333333     0.949800000000     0.019      
C        C      0.664000000000     0.846466666667     0.954900000000    -0.021      
C        C      0.487333333333     0.985833333333     0.822000000000     0.426      
C        C      0.497133333333     0.673333333333     0.860550000000    -0.094      
C        C      0.483033333333     0.983400000000     0.893900000000    -0.015      
C        C      0.493200000000     0.669533333333     0.928500000000     0.027      
C        C      0.531566666667     0.733033333333     0.899050000000     0.015      
C        C      0.520933333333     0.715300000000     0.863550000000    -0.003      
C        C      0.407633333333     0.975533333333     0.730900000000     0.448      
C        C      0.356566666667     0.961033333333     0.722750000000    -0.089      
C        C      0.660366666667     0.922133333333     0.734300000000    -0.014      
C        C      0.613000000000     0.910533333333     0.729100000000     0.016      
C        C      0.621900000000     0.973800000000     0.699800000000     0.024      
C        C      0.336000000000     0.986866666667     0.704900000000    -0.029      
N        N      0.422733333333     0.696966666667     0.515950000000     0.067      
N        N      0.518000000000     0.876833333333     0.819050000000    -0.042      
N        N      0.595100000000     0.770266666667     0.537300000000    -0.05       
N        N      0.577266666667     0.803033333333     0.765950000000     0.066      
N        N      0.482000000000     0.956500000000     0.569050000000    -0.041      
N        N      0.404900000000     0.729733333333     0.787300000000    -0.05       
N        N      0.577266666667     0.969700000000     0.984050000000     0.067      
N        N      0.482000000000     0.789833333333     0.680950000000    -0.042      
N        N      0.404900000000     0.896400000000     0.962700000000    -0.05       
N        N      0.422733333333     0.863633333333     0.734050000000     0.066      
N        N      0.518000000000     0.710166666667     0.930950000000    -0.041      
N        N      0.595100000000     0.936933333333     0.712700000000    -0.05       
O        O      0.451000000000     0.718433333333     0.541000000000    -0.28       
O        O      0.432133333333     0.706133333333     0.981550000000    -0.258      
O        O      0.479733333333     0.781166666667     0.929500000000    -0.448      
O        O      0.491500000000     0.840900000000     0.957400000000    -0.575      
O        O      0.529200000000     0.894333333333     0.785350000000    -0.304      
O        O      0.423800000000     0.782100000000     0.507550000000    -0.478      
O        O      0.429900000000     0.846966666667     0.523850000000    -0.488      
O        O      0.548766666667     0.758166666667     0.541050000000    -0.309      
O        O      0.389400000000     0.668366666667     0.524500000000    -0.105      
O        O      0.549000000000     0.781566666667     0.791000000000    -0.28       
O        O      0.567866666667     0.793866666667     0.731550000000    -0.256      
O        O      0.520266666667     0.718833333333     0.679500000000    -0.448      
O        O      0.508500000000     0.992433333333     0.707400000000    -0.576      
O        O      0.470800000000     0.939000000000     0.535350000000    -0.305      
O        O      0.576200000000     0.717900000000     0.757550000000    -0.479      
O        O      0.570100000000     0.986366666667     0.773850000000    -0.487      
O        O      0.451233333333     0.741833333333     0.791050000000    -0.309      
O        O      0.610600000000     0.831633333333     0.774500000000    -0.106      
O        O      0.549000000000     0.948233333333     0.959000000000    -0.28       
O        O      0.567866666667     0.960533333333     0.518450000000    -0.258      
O        O      0.520266666667     0.885500000000     0.570500000000    -0.448      
O        O      0.508500000000     0.825766666667     0.542600000000    -0.575      
O        O      0.470800000000     0.772333333333     0.714650000000    -0.304      
O        O      0.576200000000     0.884566666667     0.992450000000    -0.478      
O        O      0.570100000000     0.819700000000     0.976150000000    -0.488      
O        O      0.451233333333     0.908500000000     0.958950000000    -0.309      
O        O      0.610600000000     0.998300000000     0.975500000000    -0.105      
O        O      0.451000000000     0.885100000000     0.709000000000    -0.28       
O        O      0.432133333333     0.872800000000     0.768450000000    -0.256      
O        O      0.479733333333     0.947833333333     0.820500000000    -0.448      
O        O      0.491500000000     0.674233333333     0.792600000000    -0.576      
O        O      0.529200000000     0.727666666667     0.964650000000    -0.305      
O        O      0.423800000000     0.948766666667     0.742450000000    -0.479      
O        O      0.429900000000     0.680300000000     0.726150000000    -0.487      
O        O      0.548766666667     0.924833333333     0.708950000000    -0.309      
O        O      0.389400000000     0.835033333333     0.725500000000    -0.106      
Eu       Eu     0.830200000000     0.106316666667     0.496360000000     2.101      
Eu       Eu     0.836466666667     0.060350000000     0.246360000000     2.1        
Eu       Eu     0.836466666667     0.227016666667     0.003640000000     2.101      
Eu       Eu     0.830200000000     0.272983333333     0.253640000000     2.1        
H        H      0.800266666667     0.121800000000     0.357450000000     0.069      
H        H      0.816133333333     0.154433333333     0.299300000000     0.052      
H        H      0.881666666667     0.261133333333     0.348950000000     0.049      
H        H      0.863033333333     0.231433333333     0.408300000000     0.041      
H        H      0.672800000000     0.070466666667     0.004300000000     0.08       
H        H      0.926933333333     0.051200000000     0.013100000000     0.069      
H        H      0.941800000000     0.157433333333     0.062750000000     0.038      
H        H      0.687733333333     0.179633333333     0.053500000000     0.058      
H        H      0.866400000000     0.044866666667     0.107450000000     0.066      
H        H      0.850533333333     0.012233333333     0.049300000000     0.056      
H        H      0.785000000000     0.238866666667     0.098950000000     0.049      
H        H      0.803633333333     0.268566666667     0.158300000000     0.04       
H        H      0.993866666667     0.096200000000     0.254300000000     0.076      
H        H      0.739733333333     0.115466666667     0.263100000000     0.07       
H        H      0.724866666667     0.009233333333     0.312750000000     0.037      
H        H      0.978933333333     0.320366666667     0.303500000000     0.062      
H        H      0.866400000000     0.211533333333     0.142550000000     0.069      
H        H      0.850533333333     0.178900000000     0.200700000000     0.052      
H        H      0.785000000000     0.072200000000     0.151050000000     0.049      
H        H      0.803633333333     0.101900000000     0.091700000000     0.041      
H        H      0.993866666667     0.262866666667     0.495700000000     0.08       
H        H      0.739733333333     0.282133333333     0.486900000000     0.069      
H        H      0.724866666667     0.175900000000     0.437250000000     0.038      
H        H      0.978933333333     0.153700000000     0.446500000000     0.058      
H        H      0.800266666667     0.288466666667     0.392550000000     0.066      
H        H      0.816133333333     0.321100000000     0.450700000000     0.056      
H        H      0.881666666667     0.094466666667     0.401050000000     0.049      
H        H      0.863033333333     0.064766666667     0.341700000000     0.04       
H        H      0.672800000000     0.237133333333     0.245700000000     0.076      
H        H      0.926933333333     0.217866666667     0.236900000000     0.07       
H        H      0.941800000000     0.324100000000     0.187250000000     0.037      
H        H      0.687733333333     0.012966666667     0.196500000000     0.062      
C        C      0.820666666667     0.152500000000     0.428000000000     0.423      
C        C      0.830466666667     0.173333333333     0.389450000000    -0.089      
C        C      0.816366666667     0.150066666667     0.356100000000    -0.023      
C        C      0.826533333333     0.169533333333     0.321500000000     0.036      
C        C      0.864900000000     0.233033333333     0.350950000000     0.017      
C        C      0.854266666667     0.215300000000     0.386450000000    -0.007      
C        C      0.740966666667     0.142200000000     0.019100000000     0.45       
C        C      0.689900000000     0.127700000000     0.027250000000    -0.088      
C        C      0.993700000000     0.088800000000     0.015700000000    -0.02       
C        C      0.946333333333     0.077200000000     0.020900000000     0.019      
C        C      0.955233333333     0.140466666667     0.050200000000     0.019      
C        C      0.669333333333     0.153533333333     0.045100000000    -0.021      
C        C      0.846000000000     0.014166666667     0.178000000000     0.426      
C        C      0.836200000000     0.326666666667     0.139450000000    -0.094      
C        C      0.850300000000     0.016600000000     0.106100000000    -0.015      
C        C      0.840133333333     0.330466666667     0.071500000000     0.027      
C        C      0.801766666667     0.266966666667     0.100950000000     0.015      
C        C      0.812400000000     0.284700000000     0.136450000000    -0.003      
C        C      0.925700000000     0.024466666667     0.269100000000     0.448      
C        C      0.976766666667     0.038966666667     0.277250000000    -0.089      
C        C      0.672966666667     0.077866666667     0.265700000000    -0.014      
C        C      0.720333333333     0.089466666667     0.270900000000     0.016      
C        C      0.711433333333     0.026200000000     0.300200000000     0.024      
C        C      0.997333333333     0.013133333333     0.295100000000    -0.029      
C        C      0.846000000000     0.180833333333     0.072000000000     0.423      
C        C      0.836200000000     0.160000000000     0.110550000000    -0.089      
C        C      0.850300000000     0.183266666667     0.143900000000    -0.023      
C        C      0.840133333333     0.163800000000     0.178500000000     0.036      
C        C      0.801766666667     0.100300000000     0.149050000000     0.017      
C        C      0.812400000000     0.118033333333     0.113550000000    -0.007      
C        C      0.925700000000     0.191133333333     0.480900000000     0.45       
C        C      0.976766666667     0.205633333333     0.472750000000    -0.088      
C        C      0.672966666667     0.244533333333     0.484300000000    -0.02       
C        C      0.720333333333     0.256133333333     0.479100000000     0.019      
C        C      0.711433333333     0.192866666667     0.449800000000     0.019      
C        C      0.997333333333     0.179800000000     0.454900000000    -0.021      
C        C      0.820666666667     0.319166666667     0.322000000000     0.426      
C        C      0.830466666667     0.006666666667     0.360550000000    -0.094      
C        C      0.816366666667     0.316733333333     0.393900000000    -0.015      
C        C      0.826533333333     0.002866666667     0.428500000000     0.027      
C        C      0.864900000000     0.066366666667     0.399050000000     0.015      
C        C      0.854266666667     0.048633333333     0.363550000000    -0.003      
C        C      0.740966666667     0.308866666667     0.230900000000     0.448      
C        C      0.689900000000     0.294366666667     0.222750000000    -0.089      
C        C      0.993700000000     0.255466666667     0.234300000000    -0.014      
C        C      0.946333333333     0.243866666667     0.229100000000     0.016      
C        C      0.955233333333     0.307133333333     0.199800000000     0.024      
C        C      0.669333333333     0.320200000000     0.204900000000    -0.029      
N        N      0.756066666667     0.030300000000     0.015950000000     0.067      
N        N      0.851333333333     0.210166666667     0.319050000000    -0.042      
N        N      0.928433333333     0.103600000000     0.037300000000    -0.05       
N        N      0.910600000000     0.136366666667     0.265950000000     0.066      
N        N      0.815333333333     0.289833333333     0.069050000000    -0.041      
N        N      0.738233333333     0.063066666667     0.287300000000    -0.05       
N        N      0.910600000000     0.303033333333     0.484050000000     0.067      
N        N      0.815333333333     0.123166666667     0.180950000000    -0.042      
N        N      0.738233333333     0.229733333333     0.462700000000    -0.05       
N        N      0.756066666667     0.196966666667     0.234050000000     0.066      
N        N      0.851333333333     0.043500000000     0.430950000000    -0.041      
N        N      0.928433333333     0.270266666667     0.212700000000    -0.05       
O        O      0.784333333333     0.051766666667     0.041000000000    -0.28       
O        O      0.765466666667     0.039466666667     0.481550000000    -0.258      
O        O      0.813066666667     0.114500000000     0.429500000000    -0.448      
O        O      0.824833333333     0.174233333333     0.457400000000    -0.575      
O        O      0.862533333333     0.227666666667     0.285350000000    -0.304      
O        O      0.757133333333     0.115433333333     0.007550000000    -0.478      
O        O      0.763233333333     0.180300000000     0.023850000000    -0.488      
O        O      0.882100000000     0.091500000000     0.041050000000    -0.309      
O        O      0.722733333333     0.001700000000     0.024500000000    -0.105      
O        O      0.882333333333     0.114900000000     0.291000000000    -0.28       
O        O      0.901200000000     0.127200000000     0.231550000000    -0.256      
O        O      0.853600000000     0.052166666667     0.179500000000    -0.448      
O        O      0.841833333333     0.325766666667     0.207400000000    -0.576      
O        O      0.804133333333     0.272333333333     0.035350000000    -0.305      
O        O      0.909533333333     0.051233333333     0.257550000000    -0.479      
O        O      0.903433333333     0.319700000000     0.273850000000    -0.487      
O        O      0.784566666667     0.075166666667     0.291050000000    -0.309      
O        O      0.943933333333     0.164966666667     0.274500000000    -0.106      
O        O      0.882333333333     0.281566666667     0.459000000000    -0.28       
O        O      0.901200000000     0.293866666667     0.018450000000    -0.258      
O        O      0.853600000000     0.218833333333     0.070500000000    -0.448      
O        O      0.841833333333     0.159100000000     0.042600000000    -0.575      
O        O      0.804133333333     0.105666666667     0.214650000000    -0.304      
O        O      0.909533333333     0.217900000000     0.492450000000    -0.478      
O        O      0.903433333333     0.153033333333     0.476150000000    -0.488      
O        O      0.784566666667     0.241833333333     0.458950000000    -0.309      
O        O      0.943933333333     0.331633333333     0.475500000000    -0.105      
O        O      0.784333333333     0.218433333333     0.209000000000    -0.28       
O        O      0.765466666667     0.206133333333     0.268450000000    -0.256      
O        O      0.813066666667     0.281166666667     0.320500000000    -0.448      
O        O      0.824833333333     0.007566666667     0.292600000000    -0.576      
O        O      0.862533333333     0.061000000000     0.464650000000    -0.305      
O        O      0.757133333333     0.282100000000     0.242450000000    -0.479      
O        O      0.763233333333     0.013633333333     0.226150000000    -0.487      
O        O      0.882100000000     0.258166666667     0.208950000000    -0.309      
O        O      0.722733333333     0.168366666667     0.225500000000    -0.106      
Eu       Eu     0.830200000000     0.106316666667     0.996360000000     2.101      
Eu       Eu     0.836466666667     0.060350000000     0.746360000000     2.1        
Eu       Eu     0.836466666667     0.227016666667     0.503640000000     2.101      
Eu       Eu     0.830200000000     0.272983333333     0.753640000000     2.1        
H        H      0.800266666667     0.121800000000     0.857450000000     0.069      
H        H      0.816133333333     0.154433333333     0.799300000000     0.052      
H        H      0.881666666667     0.261133333333     0.848950000000     0.049      
H        H      0.863033333333     0.231433333333     0.908300000000     0.041      
H        H      0.672800000000     0.070466666667     0.504300000000     0.08       
H        H      0.926933333333     0.051200000000     0.513100000000     0.069      
H        H      0.941800000000     0.157433333333     0.562750000000     0.038      
H        H      0.687733333333     0.179633333333     0.553500000000     0.058      
H        H      0.866400000000     0.044866666667     0.607450000000     0.066      
H        H      0.850533333333     0.012233333333     0.549300000000     0.056      
H        H      0.785000000000     0.238866666667     0.598950000000     0.049      
H        H      0.803633333333     0.268566666667     0.658300000000     0.04       
H        H      0.993866666667     0.096200000000     0.754300000000     0.076      
H        H      0.739733333333     0.115466666667     0.763100000000     0.07       
H        H      0.724866666667     0.009233333333     0.812750000000     0.037      
H        H      0.978933333333     0.320366666667     0.803500000000     0.062      
H        H      0.866400000000     0.211533333333     0.642550000000     0.069      
H        H      0.850533333333     0.178900000000     0.700700000000     0.052      
H        H      0.785000000000     0.072200000000     0.651050000000     0.049      
H        H      0.803633333333     0.101900000000     0.591700000000     0.041      
H        H      0.993866666667     0.262866666667     0.995700000000     0.08       
H        H      0.739733333333     0.282133333333     0.986900000000     0.069      
H        H      0.724866666667     0.175900000000     0.937250000000     0.038      
H        H      0.978933333333     0.153700000000     0.946500000000     0.058      
H        H      0.800266666667     0.288466666667     0.892550000000     0.066      
H        H      0.816133333333     0.321100000000     0.950700000000     0.056      
H        H      0.881666666667     0.094466666667     0.901050000000     0.049      
H        H      0.863033333333     0.064766666667     0.841700000000     0.04       
H        H      0.672800000000     0.237133333333     0.745700000000     0.076      
H        H      0.926933333333     0.217866666667     0.736900000000     0.07       
H        H      0.941800000000     0.324100000000     0.687250000000     0.037      
H        H      0.687733333333     0.012966666667     0.696500000000     0.062      
C        C      0.820666666667     0.152500000000     0.928000000000     0.423      
C        C      0.830466666667     0.173333333333     0.889450000000    -0.089      
C        C      0.816366666667     0.150066666667     0.856100000000    -0.023      
C        C      0.826533333333     0.169533333333     0.821500000000     0.036      
C        C      0.864900000000     0.233033333333     0.850950000000     0.017      
C        C      0.854266666667     0.215300000000     0.886450000000    -0.007      
C        C      0.740966666667     0.142200000000     0.519100000000     0.45       
C        C      0.689900000000     0.127700000000     0.527250000000    -0.088      
C        C      0.993700000000     0.088800000000     0.515700000000    -0.02       
C        C      0.946333333333     0.077200000000     0.520900000000     0.019      
C        C      0.955233333333     0.140466666667     0.550200000000     0.019      
C        C      0.669333333333     0.153533333333     0.545100000000    -0.021      
C        C      0.846000000000     0.014166666667     0.678000000000     0.426      
C        C      0.836200000000     0.326666666667     0.639450000000    -0.094      
C        C      0.850300000000     0.016600000000     0.606100000000    -0.015      
C        C      0.840133333333     0.330466666667     0.571500000000     0.027      
C        C      0.801766666667     0.266966666667     0.600950000000     0.015      
C        C      0.812400000000     0.284700000000     0.636450000000    -0.003      
C        C      0.925700000000     0.024466666667     0.769100000000     0.448      
C        C      0.976766666667     0.038966666667     0.777250000000    -0.089      
C        C      0.672966666667     0.077866666667     0.765700000000    -0.014      
C        C      0.720333333333     0.089466666667     0.770900000000     0.016      
C        C      0.711433333333     0.026200000000     0.800200000000     0.024      
C        C      0.997333333333     0.013133333333     0.795100000000    -0.029      
C        C      0.846000000000     0.180833333333     0.572000000000     0.423      
C        C      0.836200000000     0.160000000000     0.610550000000    -0.089      
C        C      0.850300000000     0.183266666667     0.643900000000    -0.023      
C        C      0.840133333333     0.163800000000     0.678500000000     0.036      
C        C      0.801766666667     0.100300000000     0.649050000000     0.017      
C        C      0.812400000000     0.118033333333     0.613550000000    -0.007      
C        C      0.925700000000     0.191133333333     0.980900000000     0.45       
C        C      0.976766666667     0.205633333333     0.972750000000    -0.088      
C        C      0.672966666667     0.244533333333     0.984300000000    -0.02       
C        C      0.720333333333     0.256133333333     0.979100000000     0.019      
C        C      0.711433333333     0.192866666667     0.949800000000     0.019      
C        C      0.997333333333     0.179800000000     0.954900000000    -0.021      
C        C      0.820666666667     0.319166666667     0.822000000000     0.426      
C        C      0.830466666667     0.006666666667     0.860550000000    -0.094      
C        C      0.816366666667     0.316733333333     0.893900000000    -0.015      
C        C      0.826533333333     0.002866666667     0.928500000000     0.027      
C        C      0.864900000000     0.066366666667     0.899050000000     0.015      
C        C      0.854266666667     0.048633333333     0.863550000000    -0.003      
C        C      0.740966666667     0.308866666667     0.730900000000     0.448      
C        C      0.689900000000     0.294366666667     0.722750000000    -0.089      
C        C      0.993700000000     0.255466666667     0.734300000000    -0.014      
C        C      0.946333333333     0.243866666667     0.729100000000     0.016      
C        C      0.955233333333     0.307133333333     0.699800000000     0.024      
C        C      0.669333333333     0.320200000000     0.704900000000    -0.029      
N        N      0.756066666667     0.030300000000     0.515950000000     0.067      
N        N      0.851333333333     0.210166666667     0.819050000000    -0.042      
N        N      0.928433333333     0.103600000000     0.537300000000    -0.05       
N        N      0.910600000000     0.136366666667     0.765950000000     0.066      
N        N      0.815333333333     0.289833333333     0.569050000000    -0.041      
N        N      0.738233333333     0.063066666667     0.787300000000    -0.05       
N        N      0.910600000000     0.303033333333     0.984050000000     0.067      
N        N      0.815333333333     0.123166666667     0.680950000000    -0.042      
N        N      0.738233333333     0.229733333333     0.962700000000    -0.05       
N        N      0.756066666667     0.196966666667     0.734050000000     0.066      
N        N      0.851333333333     0.043500000000     0.930950000000    -0.041      
N        N      0.928433333333     0.270266666667     0.712700000000    -0.05       
O        O      0.784333333333     0.051766666667     0.541000000000    -0.28       
O        O      0.765466666667     0.039466666667     0.981550000000    -0.258      
O        O      0.813066666667     0.114500000000     0.929500000000    -0.448      
O        O      0.824833333333     0.174233333333     0.957400000000    -0.575      
O        O      0.862533333333     0.227666666667     0.785350000000    -0.304      
O        O      0.757133333333     0.115433333333     0.507550000000    -0.478      
O        O      0.763233333333     0.180300000000     0.523850000000    -0.488      
O        O      0.882100000000     0.091500000000     0.541050000000    -0.309      
O        O      0.722733333333     0.001700000000     0.524500000000    -0.105      
O        O      0.882333333333     0.114900000000     0.791000000000    -0.28       
O        O      0.901200000000     0.127200000000     0.731550000000    -0.256      
O        O      0.853600000000     0.052166666667     0.679500000000    -0.448      
O        O      0.841833333333     0.325766666667     0.707400000000    -0.576      
O        O      0.804133333333     0.272333333333     0.535350000000    -0.305      
O        O      0.909533333333     0.051233333333     0.757550000000    -0.479      
O        O      0.903433333333     0.319700000000     0.773850000000    -0.487      
O        O      0.784566666667     0.075166666667     0.791050000000    -0.309      
O        O      0.943933333333     0.164966666667     0.774500000000    -0.106      
O        O      0.882333333333     0.281566666667     0.959000000000    -0.28       
O        O      0.901200000000     0.293866666667     0.518450000000    -0.258      
O        O      0.853600000000     0.218833333333     0.570500000000    -0.448      
O        O      0.841833333333     0.159100000000     0.542600000000    -0.575      
O        O      0.804133333333     0.105666666667     0.714650000000    -0.304      
O        O      0.909533333333     0.217900000000     0.992450000000    -0.478      
O        O      0.903433333333     0.153033333333     0.976150000000    -0.488      
O        O      0.784566666667     0.241833333333     0.958950000000    -0.309      
O        O      0.943933333333     0.331633333333     0.975500000000    -0.105      
O        O      0.784333333333     0.218433333333     0.709000000000    -0.28       
O        O      0.765466666667     0.206133333333     0.768450000000    -0.256      
O        O      0.813066666667     0.281166666667     0.820500000000    -0.448      
O        O      0.824833333333     0.007566666667     0.792600000000    -0.576      
O        O      0.862533333333     0.061000000000     0.964650000000    -0.305      
O        O      0.757133333333     0.282100000000     0.742450000000    -0.479      
O        O      0.763233333333     0.013633333333     0.726150000000    -0.487      
O        O      0.882100000000     0.258166666667     0.708950000000    -0.309      
O        O      0.722733333333     0.168366666667     0.725500000000    -0.106      
Eu       Eu     0.830200000000     0.439650000000     0.496360000000     2.101      
Eu       Eu     0.836466666667     0.393683333333     0.246360000000     2.1        
Eu       Eu     0.836466666667     0.560350000000     0.003640000000     2.101      
Eu       Eu     0.830200000000     0.606316666667     0.253640000000     2.1        
H        H      0.800266666667     0.455133333333     0.357450000000     0.069      
H        H      0.816133333333     0.487766666667     0.299300000000     0.052      
H        H      0.881666666667     0.594466666667     0.348950000000     0.049      
H        H      0.863033333333     0.564766666667     0.408300000000     0.041      
H        H      0.672800000000     0.403800000000     0.004300000000     0.08       
H        H      0.926933333333     0.384533333333     0.013100000000     0.069      
H        H      0.941800000000     0.490766666667     0.062750000000     0.038      
H        H      0.687733333333     0.512966666667     0.053500000000     0.058      
H        H      0.866400000000     0.378200000000     0.107450000000     0.066      
H        H      0.850533333333     0.345566666667     0.049300000000     0.056      
H        H      0.785000000000     0.572200000000     0.098950000000     0.049      
H        H      0.803633333333     0.601900000000     0.158300000000     0.04       
H        H      0.993866666667     0.429533333333     0.254300000000     0.076      
H        H      0.739733333333     0.448800000000     0.263100000000     0.07       
H        H      0.724866666667     0.342566666667     0.312750000000     0.037      
H        H      0.978933333333     0.653700000000     0.303500000000     0.062      
H        H      0.866400000000     0.544866666667     0.142550000000     0.069      
H        H      0.850533333333     0.512233333333     0.200700000000     0.052      
H        H      0.785000000000     0.405533333333     0.151050000000     0.049      
H        H      0.803633333333     0.435233333333     0.091700000000     0.041      
H        H      0.993866666667     0.596200000000     0.495700000000     0.08       
H        H      0.739733333333     0.615466666667     0.486900000000     0.069      
H        H      0.724866666667     0.509233333333     0.437250000000     0.038      
H        H      0.978933333333     0.487033333333     0.446500000000     0.058      
H        H      0.800266666667     0.621800000000     0.392550000000     0.066      
H        H      0.816133333333     0.654433333333     0.450700000000     0.056      
H        H      0.881666666667     0.427800000000     0.401050000000     0.049      
H        H      0.863033333333     0.398100000000     0.341700000000     0.04       
H        H      0.672800000000     0.570466666667     0.245700000000     0.076      
H        H      0.926933333333     0.551200000000     0.236900000000     0.07       
H        H      0.941800000000     0.657433333333     0.187250000000     0.037      
H        H      0.687733333333     0.346300000000     0.196500000000     0.062      
C        C      0.820666666667     0.485833333333     0.428000000000     0.423      
C        C      0.830466666667     0.506666666667     0.389450000000    -0.089      
C        C      0.816366666667     0.483400000000     0.356100000000    -0.023      
C        C      0.826533333333     0.502866666667     0.321500000000     0.036      
C        C      0.864900000000     0.566366666667     0.350950000000     0.017      
C        C      0.854266666667     0.548633333333     0.386450000000    -0.007      
C        C      0.740966666667     0.475533333333     0.019100000000     0.45       
C        C      0.689900000000     0.461033333333     0.027250000000    -0.088      
C        C      0.993700000000     0.422133333333     0.015700000000    -0.02       
C        C      0.946333333333     0.410533333333     0.020900000000     0.019      
C        C      0.955233333333     0.473800000000     0.050200000000     0.019      
C        C      0.669333333333     0.486866666667     0.045100000000    -0.021      
C        C      0.846000000000     0.347500000000     0.178000000000     0.426      
C        C      0.836200000000     0.660000000000     0.139450000000    -0.094      
C        C      0.850300000000     0.349933333333     0.106100000000    -0.015      
C        C      0.840133333333     0.663800000000     0.071500000000     0.027      
C        C      0.801766666667     0.600300000000     0.100950000000     0.015      
C        C      0.812400000000     0.618033333333     0.136450000000    -0.003      
C        C      0.925700000000     0.357800000000     0.269100000000     0.448      
C        C      0.976766666667     0.372300000000     0.277250000000    -0.089      
C        C      0.672966666667     0.411200000000     0.265700000000    -0.014      
C        C      0.720333333333     0.422800000000     0.270900000000     0.016      
C        C      0.711433333333     0.359533333333     0.300200000000     0.024      
C        C      0.997333333333     0.346466666667     0.295100000000    -0.029      
C        C      0.846000000000     0.514166666667     0.072000000000     0.423      
C        C      0.836200000000     0.493333333333     0.110550000000    -0.089      
C        C      0.850300000000     0.516600000000     0.143900000000    -0.023      
C        C      0.840133333333     0.497133333333     0.178500000000     0.036      
C        C      0.801766666667     0.433633333333     0.149050000000     0.017      
C        C      0.812400000000     0.451366666667     0.113550000000    -0.007      
C        C      0.925700000000     0.524466666667     0.480900000000     0.45       
C        C      0.976766666667     0.538966666667     0.472750000000    -0.088      
C        C      0.672966666667     0.577866666667     0.484300000000    -0.02       
C        C      0.720333333333     0.589466666667     0.479100000000     0.019      
C        C      0.711433333333     0.526200000000     0.449800000000     0.019      
C        C      0.997333333333     0.513133333333     0.454900000000    -0.021      
C        C      0.820666666667     0.652500000000     0.322000000000     0.426      
C        C      0.830466666667     0.340000000000     0.360550000000    -0.094      
C        C      0.816366666667     0.650066666667     0.393900000000    -0.015      
C        C      0.826533333333     0.336200000000     0.428500000000     0.027      
C        C      0.864900000000     0.399700000000     0.399050000000     0.015      
C        C      0.854266666667     0.381966666667     0.363550000000    -0.003      
C        C      0.740966666667     0.642200000000     0.230900000000     0.448      
C        C      0.689900000000     0.627700000000     0.222750000000    -0.089      
C        C      0.993700000000     0.588800000000     0.234300000000    -0.014      
C        C      0.946333333333     0.577200000000     0.229100000000     0.016      
C        C      0.955233333333     0.640466666667     0.199800000000     0.024      
C        C      0.669333333333     0.653533333333     0.204900000000    -0.029      
N        N      0.756066666667     0.363633333333     0.015950000000     0.067      
N        N      0.851333333333     0.543500000000     0.319050000000    -0.042      
N        N      0.928433333333     0.436933333333     0.037300000000    -0.05       
N        N      0.910600000000     0.469700000000     0.265950000000     0.066      
N        N      0.815333333333     0.623166666667     0.069050000000    -0.041      
N        N      0.738233333333     0.396400000000     0.287300000000    -0.05       
N        N      0.910600000000     0.636366666667     0.484050000000     0.067      
N        N      0.815333333333     0.456500000000     0.180950000000    -0.042      
N        N      0.738233333333     0.563066666667     0.462700000000    -0.05       
N        N      0.756066666667     0.530300000000     0.234050000000     0.066      
N        N      0.851333333333     0.376833333333     0.430950000000    -0.041      
N        N      0.928433333333     0.603600000000     0.212700000000    -0.05       
O        O      0.784333333333     0.385100000000     0.041000000000    -0.28       
O        O      0.765466666667     0.372800000000     0.481550000000    -0.258      
O        O      0.813066666667     0.447833333333     0.429500000000    -0.448      
O        O      0.824833333333     0.507566666667     0.457400000000    -0.575      
O        O      0.862533333333     0.561000000000     0.285350000000    -0.304      
O        O      0.757133333333     0.448766666667     0.007550000000    -0.478      
O        O      0.763233333333     0.513633333333     0.023850000000    -0.488      
O        O      0.882100000000     0.424833333333     0.041050000000    -0.309      
O        O      0.722733333333     0.335033333333     0.024500000000    -0.105      
O        O      0.882333333333     0.448233333333     0.291000000000    -0.28       
O        O      0.901200000000     0.460533333333     0.231550000000    -0.256      
O        O      0.853600000000     0.385500000000     0.179500000000    -0.448      
O        O      0.841833333333     0.659100000000     0.207400000000    -0.576      
O        O      0.804133333333     0.605666666667     0.035350000000    -0.305      
O        O      0.909533333333     0.384566666667     0.257550000000    -0.479      
O        O      0.903433333333     0.653033333333     0.273850000000    -0.487      
O        O      0.784566666667     0.408500000000     0.291050000000    -0.309      
O        O      0.943933333333     0.498300000000     0.274500000000    -0.106      
O        O      0.882333333333     0.614900000000     0.459000000000    -0.28       
O        O      0.901200000000     0.627200000000     0.018450000000    -0.258      
O        O      0.853600000000     0.552166666667     0.070500000000    -0.448      
O        O      0.841833333333     0.492433333333     0.042600000000    -0.575      
O        O      0.804133333333     0.439000000000     0.214650000000    -0.304      
O        O      0.909533333333     0.551233333333     0.492450000000    -0.478      
O        O      0.903433333333     0.486366666667     0.476150000000    -0.488      
O        O      0.784566666667     0.575166666667     0.458950000000    -0.309      
O        O      0.943933333333     0.664966666667     0.475500000000    -0.105      
O        O      0.784333333333     0.551766666667     0.209000000000    -0.28       
O        O      0.765466666667     0.539466666667     0.268450000000    -0.256      
O        O      0.813066666667     0.614500000000     0.320500000000    -0.448      
O        O      0.824833333333     0.340900000000     0.292600000000    -0.576      
O        O      0.862533333333     0.394333333333     0.464650000000    -0.305      
O        O      0.757133333333     0.615433333333     0.242450000000    -0.479      
O        O      0.763233333333     0.346966666667     0.226150000000    -0.487      
O        O      0.882100000000     0.591500000000     0.208950000000    -0.309      
O        O      0.722733333333     0.501700000000     0.225500000000    -0.106      
Eu       Eu     0.830200000000     0.439650000000     0.996360000000     2.101      
Eu       Eu     0.836466666667     0.393683333333     0.746360000000     2.1        
Eu       Eu     0.836466666667     0.560350000000     0.503640000000     2.101      
Eu       Eu     0.830200000000     0.606316666667     0.753640000000     2.1        
H        H      0.800266666667     0.455133333333     0.857450000000     0.069      
H        H      0.816133333333     0.487766666667     0.799300000000     0.052      
H        H      0.881666666667     0.594466666667     0.848950000000     0.049      
H        H      0.863033333333     0.564766666667     0.908300000000     0.041      
H        H      0.672800000000     0.403800000000     0.504300000000     0.08       
H        H      0.926933333333     0.384533333333     0.513100000000     0.069      
H        H      0.941800000000     0.490766666667     0.562750000000     0.038      
H        H      0.687733333333     0.512966666667     0.553500000000     0.058      
H        H      0.866400000000     0.378200000000     0.607450000000     0.066      
H        H      0.850533333333     0.345566666667     0.549300000000     0.056      
H        H      0.785000000000     0.572200000000     0.598950000000     0.049      
H        H      0.803633333333     0.601900000000     0.658300000000     0.04       
H        H      0.993866666667     0.429533333333     0.754300000000     0.076      
H        H      0.739733333333     0.448800000000     0.763100000000     0.07       
H        H      0.724866666667     0.342566666667     0.812750000000     0.037      
H        H      0.978933333333     0.653700000000     0.803500000000     0.062      
H        H      0.866400000000     0.544866666667     0.642550000000     0.069      
H        H      0.850533333333     0.512233333333     0.700700000000     0.052      
H        H      0.785000000000     0.405533333333     0.651050000000     0.049      
H        H      0.803633333333     0.435233333333     0.591700000000     0.041      
H        H      0.993866666667     0.596200000000     0.995700000000     0.08       
H        H      0.739733333333     0.615466666667     0.986900000000     0.069      
H        H      0.724866666667     0.509233333333     0.937250000000     0.038      
H        H      0.978933333333     0.487033333333     0.946500000000     0.058      
H        H      0.800266666667     0.621800000000     0.892550000000     0.066      
H        H      0.816133333333     0.654433333333     0.950700000000     0.056      
H        H      0.881666666667     0.427800000000     0.901050000000     0.049      
H        H      0.863033333333     0.398100000000     0.841700000000     0.04       
H        H      0.672800000000     0.570466666667     0.745700000000     0.076      
H        H      0.926933333333     0.551200000000     0.736900000000     0.07       
H        H      0.941800000000     0.657433333333     0.687250000000     0.037      
H        H      0.687733333333     0.346300000000     0.696500000000     0.062      
C        C      0.820666666667     0.485833333333     0.928000000000     0.423      
C        C      0.830466666667     0.506666666667     0.889450000000    -0.089      
C        C      0.816366666667     0.483400000000     0.856100000000    -0.023      
C        C      0.826533333333     0.502866666667     0.821500000000     0.036      
C        C      0.864900000000     0.566366666667     0.850950000000     0.017      
C        C      0.854266666667     0.548633333333     0.886450000000    -0.007      
C        C      0.740966666667     0.475533333333     0.519100000000     0.45       
C        C      0.689900000000     0.461033333333     0.527250000000    -0.088      
C        C      0.993700000000     0.422133333333     0.515700000000    -0.02       
C        C      0.946333333333     0.410533333333     0.520900000000     0.019      
C        C      0.955233333333     0.473800000000     0.550200000000     0.019      
C        C      0.669333333333     0.486866666667     0.545100000000    -0.021      
C        C      0.846000000000     0.347500000000     0.678000000000     0.426      
C        C      0.836200000000     0.660000000000     0.639450000000    -0.094      
C        C      0.850300000000     0.349933333333     0.606100000000    -0.015      
C        C      0.840133333333     0.663800000000     0.571500000000     0.027      
C        C      0.801766666667     0.600300000000     0.600950000000     0.015      
C        C      0.812400000000     0.618033333333     0.636450000000    -0.003      
C        C      0.925700000000     0.357800000000     0.769100000000     0.448      
C        C      0.976766666667     0.372300000000     0.777250000000    -0.089      
C        C      0.672966666667     0.411200000000     0.765700000000    -0.014      
C        C      0.720333333333     0.422800000000     0.770900000000     0.016      
C        C      0.711433333333     0.359533333333     0.800200000000     0.024      
C        C      0.997333333333     0.346466666667     0.795100000000    -0.029      
C        C      0.846000000000     0.514166666667     0.572000000000     0.423      
C        C      0.836200000000     0.493333333333     0.610550000000    -0.089      
C        C      0.850300000000     0.516600000000     0.643900000000    -0.023      
C        C      0.840133333333     0.497133333333     0.678500000000     0.036      
C        C      0.801766666667     0.433633333333     0.649050000000     0.017      
C        C      0.812400000000     0.451366666667     0.613550000000    -0.007      
C        C      0.925700000000     0.524466666667     0.980900000000     0.45       
C        C      0.976766666667     0.538966666667     0.972750000000    -0.088      
C        C      0.672966666667     0.577866666667     0.984300000000    -0.02       
C        C      0.720333333333     0.589466666667     0.979100000000     0.019      
C        C      0.711433333333     0.526200000000     0.949800000000     0.019      
C        C      0.997333333333     0.513133333333     0.954900000000    -0.021      
C        C      0.820666666667     0.652500000000     0.822000000000     0.426      
C        C      0.830466666667     0.340000000000     0.860550000000    -0.094      
C        C      0.816366666667     0.650066666667     0.893900000000    -0.015      
C        C      0.826533333333     0.336200000000     0.928500000000     0.027      
C        C      0.864900000000     0.399700000000     0.899050000000     0.015      
C        C      0.854266666667     0.381966666667     0.863550000000    -0.003      
C        C      0.740966666667     0.642200000000     0.730900000000     0.448      
C        C      0.689900000000     0.627700000000     0.722750000000    -0.089      
C        C      0.993700000000     0.588800000000     0.734300000000    -0.014      
C        C      0.946333333333     0.577200000000     0.729100000000     0.016      
C        C      0.955233333333     0.640466666667     0.699800000000     0.024      
C        C      0.669333333333     0.653533333333     0.704900000000    -0.029      
N        N      0.756066666667     0.363633333333     0.515950000000     0.067      
N        N      0.851333333333     0.543500000000     0.819050000000    -0.042      
N        N      0.928433333333     0.436933333333     0.537300000000    -0.05       
N        N      0.910600000000     0.469700000000     0.765950000000     0.066      
N        N      0.815333333333     0.623166666667     0.569050000000    -0.041      
N        N      0.738233333333     0.396400000000     0.787300000000    -0.05       
N        N      0.910600000000     0.636366666667     0.984050000000     0.067      
N        N      0.815333333333     0.456500000000     0.680950000000    -0.042      
N        N      0.738233333333     0.563066666667     0.962700000000    -0.05       
N        N      0.756066666667     0.530300000000     0.734050000000     0.066      
N        N      0.851333333333     0.376833333333     0.930950000000    -0.041      
N        N      0.928433333333     0.603600000000     0.712700000000    -0.05       
O        O      0.784333333333     0.385100000000     0.541000000000    -0.28       
O        O      0.765466666667     0.372800000000     0.981550000000    -0.258      
O        O      0.813066666667     0.447833333333     0.929500000000    -0.448      
O        O      0.824833333333     0.507566666667     0.957400000000    -0.575      
O        O      0.862533333333     0.561000000000     0.785350000000    -0.304      
O        O      0.757133333333     0.448766666667     0.507550000000    -0.478      
O        O      0.763233333333     0.513633333333     0.523850000000    -0.488      
O        O      0.882100000000     0.424833333333     0.541050000000    -0.309      
O        O      0.722733333333     0.335033333333     0.524500000000    -0.105      
O        O      0.882333333333     0.448233333333     0.791000000000    -0.28       
O        O      0.901200000000     0.460533333333     0.731550000000    -0.256      
O        O      0.853600000000     0.385500000000     0.679500000000    -0.448      
O        O      0.841833333333     0.659100000000     0.707400000000    -0.576      
O        O      0.804133333333     0.605666666667     0.535350000000    -0.305      
O        O      0.909533333333     0.384566666667     0.757550000000    -0.479      
O        O      0.903433333333     0.653033333333     0.773850000000    -0.487      
O        O      0.784566666667     0.408500000000     0.791050000000    -0.309      
O        O      0.943933333333     0.498300000000     0.774500000000    -0.106      
O        O      0.882333333333     0.614900000000     0.959000000000    -0.28       
O        O      0.901200000000     0.627200000000     0.518450000000    -0.258      
O        O      0.853600000000     0.552166666667     0.570500000000    -0.448      
O        O      0.841833333333     0.492433333333     0.542600000000    -0.575      
O        O      0.804133333333     0.439000000000     0.714650000000    -0.304      
O        O      0.909533333333     0.551233333333     0.992450000000    -0.478      
O        O      0.903433333333     0.486366666667     0.976150000000    -0.488      
O        O      0.784566666667     0.575166666667     0.958950000000    -0.309      
O        O      0.943933333333     0.664966666667     0.975500000000    -0.105      
O        O      0.784333333333     0.551766666667     0.709000000000    -0.28       
O        O      0.765466666667     0.539466666667     0.768450000000    -0.256      
O        O      0.813066666667     0.614500000000     0.820500000000    -0.448      
O        O      0.824833333333     0.340900000000     0.792600000000    -0.576      
O        O      0.862533333333     0.394333333333     0.964650000000    -0.305      
O        O      0.757133333333     0.615433333333     0.742450000000    -0.479      
O        O      0.763233333333     0.346966666667     0.726150000000    -0.487      
O        O      0.882100000000     0.591500000000     0.708950000000    -0.309      
O        O      0.722733333333     0.501700000000     0.725500000000    -0.106      
Eu       Eu     0.830200000000     0.772983333333     0.496360000000     2.101      
Eu       Eu     0.836466666667     0.727016666667     0.246360000000     2.1        
Eu       Eu     0.836466666667     0.893683333333     0.003640000000     2.101      
Eu       Eu     0.830200000000     0.939650000000     0.253640000000     2.1        
H        H      0.800266666667     0.788466666667     0.357450000000     0.069      
H        H      0.816133333333     0.821100000000     0.299300000000     0.052      
H        H      0.881666666667     0.927800000000     0.348950000000     0.049      
H        H      0.863033333333     0.898100000000     0.408300000000     0.041      
H        H      0.672800000000     0.737133333333     0.004300000000     0.08       
H        H      0.926933333333     0.717866666667     0.013100000000     0.069      
H        H      0.941800000000     0.824100000000     0.062750000000     0.038      
H        H      0.687733333333     0.846300000000     0.053500000000     0.058      
H        H      0.866400000000     0.711533333333     0.107450000000     0.066      
H        H      0.850533333333     0.678900000000     0.049300000000     0.056      
H        H      0.785000000000     0.905533333333     0.098950000000     0.049      
H        H      0.803633333333     0.935233333333     0.158300000000     0.04       
H        H      0.993866666667     0.762866666667     0.254300000000     0.076      
H        H      0.739733333333     0.782133333333     0.263100000000     0.07       
H        H      0.724866666667     0.675900000000     0.312750000000     0.037      
H        H      0.978933333333     0.987033333333     0.303500000000     0.062      
H        H      0.866400000000     0.878200000000     0.142550000000     0.069      
H        H      0.850533333333     0.845566666667     0.200700000000     0.052      
H        H      0.785000000000     0.738866666667     0.151050000000     0.049      
H        H      0.803633333333     0.768566666667     0.091700000000     0.041      
H        H      0.993866666667     0.929533333333     0.495700000000     0.08       
H        H      0.739733333333     0.948800000000     0.486900000000     0.069      
H        H      0.724866666667     0.842566666667     0.437250000000     0.038      
H        H      0.978933333333     0.820366666667     0.446500000000     0.058      
H        H      0.800266666667     0.955133333333     0.392550000000     0.066      
H        H      0.816133333333     0.987766666667     0.450700000000     0.056      
H        H      0.881666666667     0.761133333333     0.401050000000     0.049      
H        H      0.863033333333     0.731433333333     0.341700000000     0.04       
H        H      0.672800000000     0.903800000000     0.245700000000     0.076      
H        H      0.926933333333     0.884533333333     0.236900000000     0.07       
H        H      0.941800000000     0.990766666667     0.187250000000     0.037      
H        H      0.687733333333     0.679633333333     0.196500000000     0.062      
C        C      0.820666666667     0.819166666667     0.428000000000     0.423      
C        C      0.830466666667     0.840000000000     0.389450000000    -0.089      
C        C      0.816366666667     0.816733333333     0.356100000000    -0.023      
C        C      0.826533333333     0.836200000000     0.321500000000     0.036      
C        C      0.864900000000     0.899700000000     0.350950000000     0.017      
C        C      0.854266666667     0.881966666667     0.386450000000    -0.007      
C        C      0.740966666667     0.808866666667     0.019100000000     0.45       
C        C      0.689900000000     0.794366666667     0.027250000000    -0.088      
C        C      0.993700000000     0.755466666667     0.015700000000    -0.02       
C        C      0.946333333333     0.743866666667     0.020900000000     0.019      
C        C      0.955233333333     0.807133333333     0.050200000000     0.019      
C        C      0.669333333333     0.820200000000     0.045100000000    -0.021      
C        C      0.846000000000     0.680833333333     0.178000000000     0.426      
C        C      0.836200000000     0.993333333333     0.139450000000    -0.094      
C        C      0.850300000000     0.683266666667     0.106100000000    -0.015      
C        C      0.840133333333     0.997133333333     0.071500000000     0.027      
C        C      0.801766666667     0.933633333333     0.100950000000     0.015      
C        C      0.812400000000     0.951366666667     0.136450000000    -0.003      
C        C      0.925700000000     0.691133333333     0.269100000000     0.448      
C        C      0.976766666667     0.705633333333     0.277250000000    -0.089      
C        C      0.672966666667     0.744533333333     0.265700000000    -0.014      
C        C      0.720333333333     0.756133333333     0.270900000000     0.016      
C        C      0.711433333333     0.692866666667     0.300200000000     0.024      
C        C      0.997333333333     0.679800000000     0.295100000000    -0.029      
C        C      0.846000000000     0.847500000000     0.072000000000     0.423      
C        C      0.836200000000     0.826666666667     0.110550000000    -0.089      
C        C      0.850300000000     0.849933333333     0.143900000000    -0.023      
C        C      0.840133333333     0.830466666667     0.178500000000     0.036      
C        C      0.801766666667     0.766966666667     0.149050000000     0.017      
C        C      0.812400000000     0.784700000000     0.113550000000    -0.007      
C        C      0.925700000000     0.857800000000     0.480900000000     0.45       
C        C      0.976766666667     0.872300000000     0.472750000000    -0.088      
C        C      0.672966666667     0.911200000000     0.484300000000    -0.02       
C        C      0.720333333333     0.922800000000     0.479100000000     0.019      
C        C      0.711433333333     0.859533333333     0.449800000000     0.019      
C        C      0.997333333333     0.846466666667     0.454900000000    -0.021      
C        C      0.820666666667     0.985833333333     0.322000000000     0.426      
C        C      0.830466666667     0.673333333333     0.360550000000    -0.094      
C        C      0.816366666667     0.983400000000     0.393900000000    -0.015      
C        C      0.826533333333     0.669533333333     0.428500000000     0.027      
C        C      0.864900000000     0.733033333333     0.399050000000     0.015      
C        C      0.854266666667     0.715300000000     0.363550000000    -0.003      
C        C      0.740966666667     0.975533333333     0.230900000000     0.448      
C        C      0.689900000000     0.961033333333     0.222750000000    -0.089      
C        C      0.993700000000     0.922133333333     0.234300000000    -0.014      
C        C      0.946333333333     0.910533333333     0.229100000000     0.016      
C        C      0.955233333333     0.973800000000     0.199800000000     0.024      
C        C      0.669333333333     0.986866666667     0.204900000000    -0.029      
N        N      0.756066666667     0.696966666667     0.015950000000     0.067      
N        N      0.851333333333     0.876833333333     0.319050000000    -0.042      
N        N      0.928433333333     0.770266666667     0.037300000000    -0.05       
N        N      0.910600000000     0.803033333333     0.265950000000     0.066      
N        N      0.815333333333     0.956500000000     0.069050000000    -0.041      
N        N      0.738233333333     0.729733333333     0.287300000000    -0.05       
N        N      0.910600000000     0.969700000000     0.484050000000     0.067      
N        N      0.815333333333     0.789833333333     0.180950000000    -0.042      
N        N      0.738233333333     0.896400000000     0.462700000000    -0.05       
N        N      0.756066666667     0.863633333333     0.234050000000     0.066      
N        N      0.851333333333     0.710166666667     0.430950000000    -0.041      
N        N      0.928433333333     0.936933333333     0.212700000000    -0.05       
O        O      0.784333333333     0.718433333333     0.041000000000    -0.28       
O        O      0.765466666667     0.706133333333     0.481550000000    -0.258      
O        O      0.813066666667     0.781166666667     0.429500000000    -0.448      
O        O      0.824833333333     0.840900000000     0.457400000000    -0.575      
O        O      0.862533333333     0.894333333333     0.285350000000    -0.304      
O        O      0.757133333333     0.782100000000     0.007550000000    -0.478      
O        O      0.763233333333     0.846966666667     0.023850000000    -0.488      
O        O      0.882100000000     0.758166666667     0.041050000000    -0.309      
O        O      0.722733333333     0.668366666667     0.024500000000    -0.105      
O        O      0.882333333333     0.781566666667     0.291000000000    -0.28       
O        O      0.901200000000     0.793866666667     0.231550000000    -0.256      
O        O      0.853600000000     0.718833333333     0.179500000000    -0.448      
O        O      0.841833333333     0.992433333333     0.207400000000    -0.576      
O        O      0.804133333333     0.939000000000     0.035350000000    -0.305      
O        O      0.909533333333     0.717900000000     0.257550000000    -0.479      
O        O      0.903433333333     0.986366666667     0.273850000000    -0.487      
O        O      0.784566666667     0.741833333333     0.291050000000    -0.309      
O        O      0.943933333333     0.831633333333     0.274500000000    -0.106      
O        O      0.882333333333     0.948233333333     0.459000000000    -0.28       
O        O      0.901200000000     0.960533333333     0.018450000000    -0.258      
O        O      0.853600000000     0.885500000000     0.070500000000    -0.448      
O        O      0.841833333333     0.825766666667     0.042600000000    -0.575      
O        O      0.804133333333     0.772333333333     0.214650000000    -0.304      
O        O      0.909533333333     0.884566666667     0.492450000000    -0.478      
O        O      0.903433333333     0.819700000000     0.476150000000    -0.488      
O        O      0.784566666667     0.908500000000     0.458950000000    -0.309      
O        O      0.943933333333     0.998300000000     0.475500000000    -0.105      
O        O      0.784333333333     0.885100000000     0.209000000000    -0.28       
O        O      0.765466666667     0.872800000000     0.268450000000    -0.256      
O        O      0.813066666667     0.947833333333     0.320500000000    -0.448      
O        O      0.824833333333     0.674233333333     0.292600000000    -0.576      
O        O      0.862533333333     0.727666666667     0.464650000000    -0.305      
O        O      0.757133333333     0.948766666667     0.242450000000    -0.479      
O        O      0.763233333333     0.680300000000     0.226150000000    -0.487      
O        O      0.882100000000     0.924833333333     0.208950000000    -0.309      
O        O      0.722733333333     0.835033333333     0.225500000000    -0.106      
Eu       Eu     0.830200000000     0.772983333333     0.996360000000     2.101      
Eu       Eu     0.836466666667     0.727016666667     0.746360000000     2.1        
Eu       Eu     0.836466666667     0.893683333333     0.503640000000     2.101      
Eu       Eu     0.830200000000     0.939650000000     0.753640000000     2.1        
H        H      0.800266666667     0.788466666667     0.857450000000     0.069      
H        H      0.816133333333     0.821100000000     0.799300000000     0.052      
H        H      0.881666666667     0.927800000000     0.848950000000     0.049      
H        H      0.863033333333     0.898100000000     0.908300000000     0.041      
H        H      0.672800000000     0.737133333333     0.504300000000     0.08       
H        H      0.926933333333     0.717866666667     0.513100000000     0.069      
H        H      0.941800000000     0.824100000000     0.562750000000     0.038      
H        H      0.687733333333     0.846300000000     0.553500000000     0.058      
H        H      0.866400000000     0.711533333333     0.607450000000     0.066      
H        H      0.850533333333     0.678900000000     0.549300000000     0.056      
H        H      0.785000000000     0.905533333333     0.598950000000     0.049      
H        H      0.803633333333     0.935233333333     0.658300000000     0.04       
H        H      0.993866666667     0.762866666667     0.754300000000     0.076      
H        H      0.739733333333     0.782133333333     0.763100000000     0.07       
H        H      0.724866666667     0.675900000000     0.812750000000     0.037      
H        H      0.978933333333     0.987033333333     0.803500000000     0.062      
H        H      0.866400000000     0.878200000000     0.642550000000     0.069      
H        H      0.850533333333     0.845566666667     0.700700000000     0.052      
H        H      0.785000000000     0.738866666667     0.651050000000     0.049      
H        H      0.803633333333     0.768566666667     0.591700000000     0.041      
H        H      0.993866666667     0.929533333333     0.995700000000     0.08       
H        H      0.739733333333     0.948800000000     0.986900000000     0.069      
H        H      0.724866666667     0.842566666667     0.937250000000     0.038      
H        H      0.978933333333     0.820366666667     0.946500000000     0.058      
H        H      0.800266666667     0.955133333333     0.892550000000     0.066      
H        H      0.816133333333     0.987766666667     0.950700000000     0.056      
H        H      0.881666666667     0.761133333333     0.901050000000     0.049      
H        H      0.863033333333     0.731433333333     0.841700000000     0.04       
H        H      0.672800000000     0.903800000000     0.745700000000     0.076      
H        H      0.926933333333     0.884533333333     0.736900000000     0.07       
H        H      0.941800000000     0.990766666667     0.687250000000     0.037      
H        H      0.687733333333     0.679633333333     0.696500000000     0.062      
C        C      0.820666666667     0.819166666667     0.928000000000     0.423      
C        C      0.830466666667     0.840000000000     0.889450000000    -0.089      
C        C      0.816366666667     0.816733333333     0.856100000000    -0.023      
C        C      0.826533333333     0.836200000000     0.821500000000     0.036      
C        C      0.864900000000     0.899700000000     0.850950000000     0.017      
C        C      0.854266666667     0.881966666667     0.886450000000    -0.007      
C        C      0.740966666667     0.808866666667     0.519100000000     0.45       
C        C      0.689900000000     0.794366666667     0.527250000000    -0.088      
C        C      0.993700000000     0.755466666667     0.515700000000    -0.02       
C        C      0.946333333333     0.743866666667     0.520900000000     0.019      
C        C      0.955233333333     0.807133333333     0.550200000000     0.019      
C        C      0.669333333333     0.820200000000     0.545100000000    -0.021      
C        C      0.846000000000     0.680833333333     0.678000000000     0.426      
C        C      0.836200000000     0.993333333333     0.639450000000    -0.094      
C        C      0.850300000000     0.683266666667     0.606100000000    -0.015      
C        C      0.840133333333     0.997133333333     0.571500000000     0.027      
C        C      0.801766666667     0.933633333333     0.600950000000     0.015      
C        C      0.812400000000     0.951366666667     0.636450000000    -0.003      
C        C      0.925700000000     0.691133333333     0.769100000000     0.448      
C        C      0.976766666667     0.705633333333     0.777250000000    -0.089      
C        C      0.672966666667     0.744533333333     0.765700000000    -0.014      
C        C      0.720333333333     0.756133333333     0.770900000000     0.016      
C        C      0.711433333333     0.692866666667     0.800200000000     0.024      
C        C      0.997333333333     0.679800000000     0.795100000000    -0.029      
C        C      0.846000000000     0.847500000000     0.572000000000     0.423      
C        C      0.836200000000     0.826666666667     0.610550000000    -0.089      
C        C      0.850300000000     0.849933333333     0.643900000000    -0.023      
C        C      0.840133333333     0.830466666667     0.678500000000     0.036      
C        C      0.801766666667     0.766966666667     0.649050000000     0.017      
C        C      0.812400000000     0.784700000000     0.613550000000    -0.007      
C        C      0.925700000000     0.857800000000     0.980900000000     0.45       
C        C      0.976766666667     0.872300000000     0.972750000000    -0.088      
C        C      0.672966666667     0.911200000000     0.984300000000    -0.02       
C        C      0.720333333333     0.922800000000     0.979100000000     0.019      
C        C      0.711433333333     0.859533333333     0.949800000000     0.019      
C        C      0.997333333333     0.846466666667     0.954900000000    -0.021      
C        C      0.820666666667     0.985833333333     0.822000000000     0.426      
C        C      0.830466666667     0.673333333333     0.860550000000    -0.094      
C        C      0.816366666667     0.983400000000     0.893900000000    -0.015      
C        C      0.826533333333     0.669533333333     0.928500000000     0.027      
C        C      0.864900000000     0.733033333333     0.899050000000     0.015      
C        C      0.854266666667     0.715300000000     0.863550000000    -0.003      
C        C      0.740966666667     0.975533333333     0.730900000000     0.448      
C        C      0.689900000000     0.961033333333     0.722750000000    -0.089      
C        C      0.993700000000     0.922133333333     0.734300000000    -0.014      
C        C      0.946333333333     0.910533333333     0.729100000000     0.016      
C        C      0.955233333333     0.973800000000     0.699800000000     0.024      
C        C      0.669333333333     0.986866666667     0.704900000000    -0.029      
N        N      0.756066666667     0.696966666667     0.515950000000     0.067      
N        N      0.851333333333     0.876833333333     0.819050000000    -0.042      
N        N      0.928433333333     0.770266666667     0.537300000000    -0.05       
N        N      0.910600000000     0.803033333333     0.765950000000     0.066      
N        N      0.815333333333     0.956500000000     0.569050000000    -0.041      
N        N      0.738233333333     0.729733333333     0.787300000000    -0.05       
N        N      0.910600000000     0.969700000000     0.984050000000     0.067      
N        N      0.815333333333     0.789833333333     0.680950000000    -0.042      
N        N      0.738233333333     0.896400000000     0.962700000000    -0.05       
N        N      0.756066666667     0.863633333333     0.734050000000     0.066      
N        N      0.851333333333     0.710166666667     0.930950000000    -0.041      
N        N      0.928433333333     0.936933333333     0.712700000000    -0.05       
O        O      0.784333333333     0.718433333333     0.541000000000    -0.28       
O        O      0.765466666667     0.706133333333     0.981550000000    -0.258      
O        O      0.813066666667     0.781166666667     0.929500000000    -0.448      
O        O      0.824833333333     0.840900000000     0.957400000000    -0.575      
O        O      0.862533333333     0.894333333333     0.785350000000    -0.304      
O        O      0.757133333333     0.782100000000     0.507550000000    -0.478      
O        O      0.763233333333     0.846966666667     0.523850000000    -0.488      
O        O      0.882100000000     0.758166666667     0.541050000000    -0.309      
O        O      0.722733333333     0.668366666667     0.524500000000    -0.105      
O        O      0.882333333333     0.781566666667     0.791000000000    -0.28       
O        O      0.901200000000     0.793866666667     0.731550000000    -0.256      
O        O      0.853600000000     0.718833333333     0.679500000000    -0.448      
O        O      0.841833333333     0.992433333333     0.707400000000    -0.576      
O        O      0.804133333333     0.939000000000     0.535350000000    -0.305      
O        O      0.909533333333     0.717900000000     0.757550000000    -0.479      
O        O      0.903433333333     0.986366666667     0.773850000000    -0.487      
O        O      0.784566666667     0.741833333333     0.791050000000    -0.309      
O        O      0.943933333333     0.831633333333     0.774500000000    -0.106      
O        O      0.882333333333     0.948233333333     0.959000000000    -0.28       
O        O      0.901200000000     0.960533333333     0.518450000000    -0.258      
O        O      0.853600000000     0.885500000000     0.570500000000    -0.448      
O        O      0.841833333333     0.825766666667     0.542600000000    -0.575      
O        O      0.804133333333     0.772333333333     0.714650000000    -0.304      
O        O      0.909533333333     0.884566666667     0.992450000000    -0.478      
O        O      0.903433333333     0.819700000000     0.976150000000    -0.488      
O        O      0.784566666667     0.908500000000     0.958950000000    -0.309      
O        O      0.943933333333     0.998300000000     0.975500000000    -0.105      
O        O      0.784333333333     0.885100000000     0.709000000000    -0.28       
O        O      0.765466666667     0.872800000000     0.768450000000    -0.256      
O        O      0.813066666667     0.947833333333     0.820500000000    -0.448      
O        O      0.824833333333     0.674233333333     0.792600000000    -0.576      
O        O      0.862533333333     0.727666666667     0.964650000000    -0.305      
O        O      0.757133333333     0.948766666667     0.742450000000    -0.479      
O        O      0.763233333333     0.680300000000     0.726150000000    -0.487      
O        O      0.882100000000     0.924833333333     0.708950000000    -0.309      
O        O      0.722733333333     0.835033333333     0.725500000000    -0.106      


