data_KETHEY02_clean_DDEC

_audit_creation_method RASPA-1.0
_audit_creation_date 2025-9-8
_audit_author_name ''

_cell_length_a    9.2211
_cell_length_b    18.1848
_cell_length_c    9.7227
_cell_angle_alpha 90
_cell_angle_beta  104.994
_cell_angle_gamma 90
_cell_volume      37796

_symmetry_cell_setting          triclinic
_symmetry_space_group_name_Hall 'P 1'
_symmetry_space_group_name_H-M  'P 1'
_symmetry_Int_Tables_number     1

_symmetry_equiv_pos_as_xyz 'x,y,z'

loop_
_atom_site_label
_atom_site_type_symbol
_atom_site_fract_x
_atom_site_fract_y
_atom_site_fract_z
_atom_site_charge
C1       C      0.218975000000     0.142985000000     0.044533333333    -0.154058   
C1       C      0.218975000000     0.142985000000     0.377866666667    -0.154058   
C1       C      0.218975000000     0.142985000000     0.711200000000    -0.154058   
C1       C      0.218975000000     0.642985000000     0.044533333333    -0.154058   
C1       C      0.218975000000     0.642985000000     0.377866666667    -0.154058   
C1       C      0.218975000000     0.642985000000     0.711200000000    -0.154058   
C1       C      0.468975000000     0.142985000000     0.044533333333    -0.154058   
C1       C      0.468975000000     0.142985000000     0.377866666667    -0.154058   
C1       C      0.468975000000     0.142985000000     0.711200000000    -0.154058   
C1       C      0.468975000000     0.642985000000     0.044533333333    -0.154058   
C1       C      0.468975000000     0.642985000000     0.377866666667    -0.154058   
C1       C      0.468975000000     0.642985000000     0.711200000000    -0.154058   
C1       C      0.718975000000     0.142985000000     0.044533333333    -0.154058   
C1       C      0.718975000000     0.142985000000     0.377866666667    -0.154058   
C1       C      0.718975000000     0.142985000000     0.711200000000    -0.154058   
C1       C      0.718975000000     0.642985000000     0.044533333333    -0.154058   
C1       C      0.718975000000     0.642985000000     0.377866666667    -0.154058   
C1       C      0.718975000000     0.642985000000     0.711200000000    -0.154058   
C1       C      0.968975000000     0.142985000000     0.044533333333    -0.154058   
C1       C      0.968975000000     0.142985000000     0.377866666667    -0.154058   
C1       C      0.968975000000     0.142985000000     0.711200000000    -0.154058   
C1       C      0.968975000000     0.642985000000     0.044533333333    -0.154058   
C1       C      0.968975000000     0.642985000000     0.377866666667    -0.154058   
C1       C      0.968975000000     0.642985000000     0.711200000000    -0.154058   
C2       C      0.173675000000     0.098520000000     0.308366666667     0.089893   
C2       C      0.173675000000     0.098520000000     0.641700000000     0.089893   
C2       C      0.173675000000     0.098520000000     0.975033333333     0.089893   
C2       C      0.173675000000     0.598520000000     0.308366666667     0.089893   
C2       C      0.173675000000     0.598520000000     0.641700000000     0.089893   
C2       C      0.173675000000     0.598520000000     0.975033333333     0.089893   
C2       C      0.423675000000     0.098520000000     0.308366666667     0.089893   
C2       C      0.423675000000     0.098520000000     0.641700000000     0.089893   
C2       C      0.423675000000     0.098520000000     0.975033333333     0.089893   
C2       C      0.423675000000     0.598520000000     0.308366666667     0.089893   
C2       C      0.423675000000     0.598520000000     0.641700000000     0.089893   
C2       C      0.423675000000     0.598520000000     0.975033333333     0.089893   
C2       C      0.673675000000     0.098520000000     0.308366666667     0.089893   
C2       C      0.673675000000     0.098520000000     0.641700000000     0.089893   
C2       C      0.673675000000     0.098520000000     0.975033333333     0.089893   
C2       C      0.673675000000     0.598520000000     0.308366666667     0.089893   
C2       C      0.673675000000     0.598520000000     0.641700000000     0.089893   
C2       C      0.673675000000     0.598520000000     0.975033333333     0.089893   
C2       C      0.923675000000     0.098520000000     0.308366666667     0.089893   
C2       C      0.923675000000     0.098520000000     0.641700000000     0.089893   
C2       C      0.923675000000     0.098520000000     0.975033333333     0.089893   
C2       C      0.923675000000     0.598520000000     0.308366666667     0.089893   
C2       C      0.923675000000     0.598520000000     0.641700000000     0.089893   
C2       C      0.923675000000     0.598520000000     0.975033333333     0.089893   
C3       C      0.202450000000     0.083055000000     0.010033333333    -0.187747   
C3       C      0.202450000000     0.083055000000     0.343366666667    -0.187747   
C3       C      0.202450000000     0.083055000000     0.676700000000    -0.187747   
C3       C      0.202450000000     0.583055000000     0.010033333333    -0.187747   
C3       C      0.202450000000     0.583055000000     0.343366666667    -0.187747   
C3       C      0.202450000000     0.583055000000     0.676700000000    -0.187747   
C3       C      0.452450000000     0.083055000000     0.010033333333    -0.187747   
C3       C      0.452450000000     0.083055000000     0.343366666667    -0.187747   
C3       C      0.452450000000     0.083055000000     0.676700000000    -0.187747   
C3       C      0.452450000000     0.583055000000     0.010033333333    -0.187747   
C3       C      0.452450000000     0.583055000000     0.343366666667    -0.187747   
C3       C      0.452450000000     0.583055000000     0.676700000000    -0.187747   
C3       C      0.702450000000     0.083055000000     0.010033333333    -0.187747   
C3       C      0.702450000000     0.083055000000     0.343366666667    -0.187747   
C3       C      0.702450000000     0.083055000000     0.676700000000    -0.187747   
C3       C      0.702450000000     0.583055000000     0.010033333333    -0.187747   
C3       C      0.702450000000     0.583055000000     0.343366666667    -0.187747   
C3       C      0.702450000000     0.583055000000     0.676700000000    -0.187747   
C3       C      0.952450000000     0.083055000000     0.010033333333    -0.187747   
C3       C      0.952450000000     0.083055000000     0.343366666667    -0.187747   
C3       C      0.952450000000     0.083055000000     0.676700000000    -0.187747   
C3       C      0.952450000000     0.583055000000     0.010033333333    -0.187747   
C3       C      0.952450000000     0.583055000000     0.343366666667    -0.187747   
C3       C      0.952450000000     0.583055000000     0.676700000000    -0.187747   
C4       C      0.209300000000     0.042410000000     0.010433333333     0.128752   
C4       C      0.209300000000     0.042410000000     0.343766666667     0.128752   
C4       C      0.209300000000     0.042410000000     0.677100000000     0.128752   
C4       C      0.209300000000     0.542410000000     0.010433333333     0.128752   
C4       C      0.209300000000     0.542410000000     0.343766666667     0.128752   
C4       C      0.209300000000     0.542410000000     0.677100000000     0.128752   
C4       C      0.459300000000     0.042410000000     0.010433333333     0.128752   
C4       C      0.459300000000     0.042410000000     0.343766666667     0.128752   
C4       C      0.459300000000     0.042410000000     0.677100000000     0.128752   
C4       C      0.459300000000     0.542410000000     0.010433333333     0.128752   
C4       C      0.459300000000     0.542410000000     0.343766666667     0.128752   
C4       C      0.459300000000     0.542410000000     0.677100000000     0.128752   
C4       C      0.709300000000     0.042410000000     0.010433333333     0.128752   
C4       C      0.709300000000     0.042410000000     0.343766666667     0.128752   
C4       C      0.709300000000     0.042410000000     0.677100000000     0.128752   
C4       C      0.709300000000     0.542410000000     0.010433333333     0.128752   
C4       C      0.709300000000     0.542410000000     0.343766666667     0.128752   
C4       C      0.709300000000     0.542410000000     0.677100000000     0.128752   
C4       C      0.959300000000     0.042410000000     0.010433333333     0.128752   
C4       C      0.959300000000     0.042410000000     0.343766666667     0.128752   
C4       C      0.959300000000     0.042410000000     0.677100000000     0.128752   
C4       C      0.959300000000     0.542410000000     0.010433333333     0.128752   
C4       C      0.959300000000     0.542410000000     0.343766666667     0.128752   
C4       C      0.959300000000     0.542410000000     0.677100000000     0.128752   
C5       C      0.225000000000     0.105365000000     0.044633333333    -0.184607   
C5       C      0.225000000000     0.105365000000     0.377966666667    -0.184607   
C5       C      0.225000000000     0.105365000000     0.711300000000    -0.184607   
C5       C      0.225000000000     0.605365000000     0.044633333333    -0.184607   
C5       C      0.225000000000     0.605365000000     0.377966666667    -0.184607   
C5       C      0.225000000000     0.605365000000     0.711300000000    -0.184607   
C5       C      0.475000000000     0.105365000000     0.044633333333    -0.184607   
C5       C      0.475000000000     0.105365000000     0.377966666667    -0.184607   
C5       C      0.475000000000     0.105365000000     0.711300000000    -0.184607   
C5       C      0.475000000000     0.605365000000     0.044633333333    -0.184607   
C5       C      0.475000000000     0.605365000000     0.377966666667    -0.184607   
C5       C      0.475000000000     0.605365000000     0.711300000000    -0.184607   
C5       C      0.725000000000     0.105365000000     0.044633333333    -0.184607   
C5       C      0.725000000000     0.105365000000     0.377966666667    -0.184607   
C5       C      0.725000000000     0.105365000000     0.711300000000    -0.184607   
C5       C      0.725000000000     0.605365000000     0.044633333333    -0.184607   
C5       C      0.725000000000     0.605365000000     0.377966666667    -0.184607   
C5       C      0.725000000000     0.605365000000     0.711300000000    -0.184607   
C5       C      0.975000000000     0.105365000000     0.044633333333    -0.184607   
C5       C      0.975000000000     0.105365000000     0.377966666667    -0.184607   
C5       C      0.975000000000     0.105365000000     0.711300000000    -0.184607   
C5       C      0.975000000000     0.605365000000     0.044633333333    -0.184607   
C5       C      0.975000000000     0.605365000000     0.377966666667    -0.184607   
C5       C      0.975000000000     0.605365000000     0.711300000000    -0.184607   
C6       C      0.242950000000     0.166875000000     0.082866666667     0.107212   
C6       C      0.242950000000     0.166875000000     0.416200000000     0.107212   
C6       C      0.242950000000     0.166875000000     0.749533333333     0.107212   
C6       C      0.242950000000     0.666875000000     0.082866666667     0.107212   
C6       C      0.242950000000     0.666875000000     0.416200000000     0.107212   
C6       C      0.242950000000     0.666875000000     0.749533333333     0.107212   
C6       C      0.492950000000     0.166875000000     0.082866666667     0.107212   
C6       C      0.492950000000     0.166875000000     0.416200000000     0.107212   
C6       C      0.492950000000     0.166875000000     0.749533333333     0.107212   
C6       C      0.492950000000     0.666875000000     0.082866666667     0.107212   
C6       C      0.492950000000     0.666875000000     0.416200000000     0.107212   
C6       C      0.492950000000     0.666875000000     0.749533333333     0.107212   
C6       C      0.742950000000     0.166875000000     0.082866666667     0.107212   
C6       C      0.742950000000     0.166875000000     0.416200000000     0.107212   
C6       C      0.742950000000     0.166875000000     0.749533333333     0.107212   
C6       C      0.742950000000     0.666875000000     0.082866666667     0.107212   
C6       C      0.742950000000     0.666875000000     0.416200000000     0.107212   
C6       C      0.742950000000     0.666875000000     0.749533333333     0.107212   
C6       C      0.992950000000     0.166875000000     0.082866666667     0.107212   
C6       C      0.992950000000     0.166875000000     0.416200000000     0.107212   
C6       C      0.992950000000     0.166875000000     0.749533333333     0.107212   
C6       C      0.992950000000     0.666875000000     0.082866666667     0.107212   
C6       C      0.992950000000     0.666875000000     0.416200000000     0.107212   
C6       C      0.992950000000     0.666875000000     0.749533333333     0.107212   
C7       C      0.082050000000     0.363490000000     0.026833333333    -0.010614   
C7       C      0.082050000000     0.363490000000     0.360166666667    -0.010614   
C7       C      0.082050000000     0.363490000000     0.693500000000    -0.010614   
C7       C      0.082050000000     0.863490000000     0.026833333333    -0.010614   
C7       C      0.082050000000     0.863490000000     0.360166666667    -0.010614   
C7       C      0.082050000000     0.863490000000     0.693500000000    -0.010614   
C7       C      0.332050000000     0.363490000000     0.026833333333    -0.010614   
C7       C      0.332050000000     0.363490000000     0.360166666667    -0.010614   
C7       C      0.332050000000     0.363490000000     0.693500000000    -0.010614   
C7       C      0.332050000000     0.863490000000     0.026833333333    -0.010614   
C7       C      0.332050000000     0.863490000000     0.360166666667    -0.010614   
C7       C      0.332050000000     0.863490000000     0.693500000000    -0.010614   
C7       C      0.582050000000     0.363490000000     0.026833333333    -0.010614   
C7       C      0.582050000000     0.363490000000     0.360166666667    -0.010614   
C7       C      0.582050000000     0.363490000000     0.693500000000    -0.010614   
C7       C      0.582050000000     0.863490000000     0.026833333333    -0.010614   
C7       C      0.582050000000     0.863490000000     0.360166666667    -0.010614   
C7       C      0.582050000000     0.863490000000     0.693500000000    -0.010614   
C7       C      0.832050000000     0.363490000000     0.026833333333    -0.010614   
C7       C      0.832050000000     0.363490000000     0.360166666667    -0.010614   
C7       C      0.832050000000     0.363490000000     0.693500000000    -0.010614   
C7       C      0.832050000000     0.863490000000     0.026833333333    -0.010614   
C7       C      0.832050000000     0.863490000000     0.360166666667    -0.010614   
C7       C      0.832050000000     0.863490000000     0.693500000000    -0.010614   
C8       C      0.190850000000     0.158425000000     0.008233333333     0.065046   
C8       C      0.190850000000     0.158425000000     0.341566666667     0.065046   
C8       C      0.190850000000     0.158425000000     0.674900000000     0.065046   
C8       C      0.190850000000     0.658425000000     0.008233333333     0.065046   
C8       C      0.190850000000     0.658425000000     0.341566666667     0.065046   
C8       C      0.190850000000     0.658425000000     0.674900000000     0.065046   
C8       C      0.440850000000     0.158425000000     0.008233333333     0.065046   
C8       C      0.440850000000     0.158425000000     0.341566666667     0.065046   
C8       C      0.440850000000     0.158425000000     0.674900000000     0.065046   
C8       C      0.440850000000     0.658425000000     0.008233333333     0.065046   
C8       C      0.440850000000     0.658425000000     0.341566666667     0.065046   
C8       C      0.440850000000     0.658425000000     0.674900000000     0.065046   
C8       C      0.690850000000     0.158425000000     0.008233333333     0.065046   
C8       C      0.690850000000     0.158425000000     0.341566666667     0.065046   
C8       C      0.690850000000     0.158425000000     0.674900000000     0.065046   
C8       C      0.690850000000     0.658425000000     0.008233333333     0.065046   
C8       C      0.690850000000     0.658425000000     0.341566666667     0.065046   
C8       C      0.690850000000     0.658425000000     0.674900000000     0.065046   
C8       C      0.940850000000     0.158425000000     0.008233333333     0.065046   
C8       C      0.940850000000     0.158425000000     0.341566666667     0.065046   
C8       C      0.940850000000     0.158425000000     0.674900000000     0.065046   
C8       C      0.940850000000     0.658425000000     0.008233333333     0.065046   
C8       C      0.940850000000     0.658425000000     0.341566666667     0.065046   
C8       C      0.940850000000     0.658425000000     0.674900000000     0.065046   
C9       C      0.059150000000     0.341575000000     0.325100000000     0.567036   
C9       C      0.059150000000     0.341575000000     0.658433333333     0.567036   
C9       C      0.059150000000     0.341575000000     0.991766666667     0.567036   
C9       C      0.059150000000     0.841575000000     0.325100000000     0.567036   
C9       C      0.059150000000     0.841575000000     0.658433333333     0.567036   
C9       C      0.059150000000     0.841575000000     0.991766666667     0.567036   
C9       C      0.309150000000     0.341575000000     0.325100000000     0.567036   
C9       C      0.309150000000     0.341575000000     0.658433333333     0.567036   
C9       C      0.309150000000     0.341575000000     0.991766666667     0.567036   
C9       C      0.309150000000     0.841575000000     0.325100000000     0.567036   
C9       C      0.309150000000     0.841575000000     0.658433333333     0.567036   
C9       C      0.309150000000     0.841575000000     0.991766666667     0.567036   
C9       C      0.559150000000     0.341575000000     0.325100000000     0.567036   
C9       C      0.559150000000     0.341575000000     0.658433333333     0.567036   
C9       C      0.559150000000     0.341575000000     0.991766666667     0.567036   
C9       C      0.559150000000     0.841575000000     0.325100000000     0.567036   
C9       C      0.559150000000     0.841575000000     0.658433333333     0.567036   
C9       C      0.559150000000     0.841575000000     0.991766666667     0.567036   
C9       C      0.809150000000     0.341575000000     0.325100000000     0.567036   
C9       C      0.809150000000     0.341575000000     0.658433333333     0.567036   
C9       C      0.809150000000     0.341575000000     0.991766666667     0.567036   
C9       C      0.809150000000     0.841575000000     0.325100000000     0.567036   
C9       C      0.809150000000     0.841575000000     0.658433333333     0.567036   
C9       C      0.809150000000     0.841575000000     0.991766666667     0.567036   
C10      C      0.031025000000     0.357015000000     0.288800000000    -0.150167   
C10      C      0.031025000000     0.357015000000     0.622133333333    -0.150167   
C10      C      0.031025000000     0.357015000000     0.955466666667    -0.150167   
C10      C      0.031025000000     0.857015000000     0.288800000000    -0.150167   
C10      C      0.031025000000     0.857015000000     0.622133333333    -0.150167   
C10      C      0.031025000000     0.857015000000     0.955466666667    -0.150167   
C10      C      0.281025000000     0.357015000000     0.288800000000    -0.150167   
C10      C      0.281025000000     0.357015000000     0.622133333333    -0.150167   
C10      C      0.281025000000     0.357015000000     0.955466666667    -0.150167   
C10      C      0.281025000000     0.857015000000     0.288800000000    -0.150167   
C10      C      0.281025000000     0.857015000000     0.622133333333    -0.150167   
C10      C      0.281025000000     0.857015000000     0.955466666667    -0.150167   
C10      C      0.531025000000     0.357015000000     0.288800000000    -0.150167   
C10      C      0.531025000000     0.357015000000     0.622133333333    -0.150167   
C10      C      0.531025000000     0.357015000000     0.955466666667    -0.150167   
C10      C      0.531025000000     0.857015000000     0.288800000000    -0.150167   
C10      C      0.531025000000     0.857015000000     0.622133333333    -0.150167   
C10      C      0.531025000000     0.857015000000     0.955466666667    -0.150167   
C10      C      0.781025000000     0.357015000000     0.288800000000    -0.150167   
C10      C      0.781025000000     0.357015000000     0.622133333333    -0.150167   
C10      C      0.781025000000     0.357015000000     0.955466666667    -0.150167   
C10      C      0.781025000000     0.857015000000     0.288800000000    -0.150167   
C10      C      0.781025000000     0.857015000000     0.622133333333    -0.150167   
C10      C      0.781025000000     0.857015000000     0.955466666667    -0.150167   
C11      C      0.007050000000     0.333125000000     0.250466666667     0.004782   
C11      C      0.007050000000     0.333125000000     0.583800000000     0.004782   
C11      C      0.007050000000     0.333125000000     0.917133333333     0.004782   
C11      C      0.007050000000     0.833125000000     0.250466666667     0.004782   
C11      C      0.007050000000     0.833125000000     0.583800000000     0.004782   
C11      C      0.007050000000     0.833125000000     0.917133333333     0.004782   
C11      C      0.257050000000     0.333125000000     0.250466666667     0.004782   
C11      C      0.257050000000     0.333125000000     0.583800000000     0.004782   
C11      C      0.257050000000     0.333125000000     0.917133333333     0.004782   
C11      C      0.257050000000     0.833125000000     0.250466666667     0.004782   
C11      C      0.257050000000     0.833125000000     0.583800000000     0.004782   
C11      C      0.257050000000     0.833125000000     0.917133333333     0.004782   
C11      C      0.507050000000     0.333125000000     0.250466666667     0.004782   
C11      C      0.507050000000     0.333125000000     0.583800000000     0.004782   
C11      C      0.507050000000     0.333125000000     0.917133333333     0.004782   
C11      C      0.507050000000     0.833125000000     0.250466666667     0.004782   
C11      C      0.507050000000     0.833125000000     0.583800000000     0.004782   
C11      C      0.507050000000     0.833125000000     0.917133333333     0.004782   
C11      C      0.757050000000     0.333125000000     0.250466666667     0.004782   
C11      C      0.757050000000     0.333125000000     0.583800000000     0.004782   
C11      C      0.757050000000     0.333125000000     0.917133333333     0.004782   
C11      C      0.757050000000     0.833125000000     0.250466666667     0.004782   
C11      C      0.757050000000     0.833125000000     0.583800000000     0.004782   
C11      C      0.757050000000     0.833125000000     0.917133333333     0.004782   
C12      C      0.076575000000     0.096940000000     0.047833333333     0.558541   
C12      C      0.076575000000     0.096940000000     0.381166666667     0.558541   
C12      C      0.076575000000     0.096940000000     0.714500000000     0.558541   
C12      C      0.076575000000     0.596940000000     0.047833333333     0.558541   
C12      C      0.076575000000     0.596940000000     0.381166666667     0.558541   
C12      C      0.076575000000     0.596940000000     0.714500000000     0.558541   
C12      C      0.326575000000     0.096940000000     0.047833333333     0.558541   
C12      C      0.326575000000     0.096940000000     0.381166666667     0.558541   
C12      C      0.326575000000     0.096940000000     0.714500000000     0.558541   
C12      C      0.326575000000     0.596940000000     0.047833333333     0.558541   
C12      C      0.326575000000     0.596940000000     0.381166666667     0.558541   
C12      C      0.326575000000     0.596940000000     0.714500000000     0.558541   
C12      C      0.576575000000     0.096940000000     0.047833333333     0.558541   
C12      C      0.576575000000     0.096940000000     0.381166666667     0.558541   
C12      C      0.576575000000     0.096940000000     0.714500000000     0.558541   
C12      C      0.576575000000     0.596940000000     0.047833333333     0.558541   
C12      C      0.576575000000     0.596940000000     0.381166666667     0.558541   
C12      C      0.576575000000     0.596940000000     0.714500000000     0.558541   
C12      C      0.826575000000     0.096940000000     0.047833333333     0.558541   
C12      C      0.826575000000     0.096940000000     0.381166666667     0.558541   
C12      C      0.826575000000     0.096940000000     0.714500000000     0.558541   
C12      C      0.826575000000     0.596940000000     0.047833333333     0.558541   
C12      C      0.826575000000     0.596940000000     0.381166666667     0.558541   
C12      C      0.826575000000     0.596940000000     0.714500000000     0.558541   
C13      C      0.103800000000     0.114185000000     0.082800000000    -0.130646   
C13      C      0.103800000000     0.114185000000     0.416133333333    -0.130646   
C13      C      0.103800000000     0.114185000000     0.749466666667    -0.130646   
C13      C      0.103800000000     0.614185000000     0.082800000000    -0.130646   
C13      C      0.103800000000     0.614185000000     0.416133333333    -0.130646   
C13      C      0.103800000000     0.614185000000     0.749466666667    -0.130646   
C13      C      0.353800000000     0.114185000000     0.082800000000    -0.130646   
C13      C      0.353800000000     0.114185000000     0.416133333333    -0.130646   
C13      C      0.353800000000     0.114185000000     0.749466666667    -0.130646   
C13      C      0.353800000000     0.614185000000     0.082800000000    -0.130646   
C13      C      0.353800000000     0.614185000000     0.416133333333    -0.130646   
C13      C      0.353800000000     0.614185000000     0.749466666667    -0.130646   
C13      C      0.603800000000     0.114185000000     0.082800000000    -0.130646   
C13      C      0.603800000000     0.114185000000     0.416133333333    -0.130646   
C13      C      0.603800000000     0.114185000000     0.749466666667    -0.130646   
C13      C      0.603800000000     0.614185000000     0.082800000000    -0.130646   
C13      C      0.603800000000     0.614185000000     0.416133333333    -0.130646   
C13      C      0.603800000000     0.614185000000     0.749466666667    -0.130646   
C13      C      0.853800000000     0.114185000000     0.082800000000    -0.130646   
C13      C      0.853800000000     0.114185000000     0.416133333333    -0.130646   
C13      C      0.853800000000     0.114185000000     0.749466666667    -0.130646   
C13      C      0.853800000000     0.614185000000     0.082800000000    -0.130646   
C13      C      0.853800000000     0.614185000000     0.416133333333    -0.130646   
C13      C      0.853800000000     0.614185000000     0.749466666667    -0.130646   
C14      C      0.138325000000     0.096860000000     0.101100000000     0.567036   
C14      C      0.138325000000     0.096860000000     0.434433333333     0.567036   
C14      C      0.138325000000     0.096860000000     0.767766666667     0.567036   
C14      C      0.138325000000     0.596860000000     0.101100000000     0.567036   
C14      C      0.138325000000     0.596860000000     0.434433333333     0.567036   
C14      C      0.138325000000     0.596860000000     0.767766666667     0.567036   
C14      C      0.388325000000     0.096860000000     0.101100000000     0.567036   
C14      C      0.388325000000     0.096860000000     0.434433333333     0.567036   
C14      C      0.388325000000     0.096860000000     0.767766666667     0.567036   
C14      C      0.388325000000     0.596860000000     0.101100000000     0.567036   
C14      C      0.388325000000     0.596860000000     0.434433333333     0.567036   
C14      C      0.388325000000     0.596860000000     0.767766666667     0.567036   
C14      C      0.638325000000     0.096860000000     0.101100000000     0.567036   
C14      C      0.638325000000     0.096860000000     0.434433333333     0.567036   
C14      C      0.638325000000     0.096860000000     0.767766666667     0.567036   
C14      C      0.638325000000     0.596860000000     0.101100000000     0.567036   
C14      C      0.638325000000     0.596860000000     0.434433333333     0.567036   
C14      C      0.638325000000     0.596860000000     0.767766666667     0.567036   
C14      C      0.888325000000     0.096860000000     0.101100000000     0.567036   
C14      C      0.888325000000     0.096860000000     0.434433333333     0.567036   
C14      C      0.888325000000     0.096860000000     0.767766666667     0.567036   
C14      C      0.888325000000     0.596860000000     0.101100000000     0.567036   
C14      C      0.888325000000     0.596860000000     0.434433333333     0.567036   
C14      C      0.888325000000     0.596860000000     0.767766666667     0.567036   
C15      C      0.143500000000     0.063000000000     0.081933333333    -0.010613   
C15      C      0.143500000000     0.063000000000     0.415266666667    -0.010613   
C15      C      0.143500000000     0.063000000000     0.748600000000    -0.010613   
C15      C      0.143500000000     0.563000000000     0.081933333333    -0.010613   
C15      C      0.143500000000     0.563000000000     0.415266666667    -0.010613   
C15      C      0.143500000000     0.563000000000     0.748600000000    -0.010613   
C15      C      0.393500000000     0.063000000000     0.081933333333    -0.010613   
C15      C      0.393500000000     0.063000000000     0.415266666667    -0.010613   
C15      C      0.393500000000     0.063000000000     0.748600000000    -0.010613   
C15      C      0.393500000000     0.563000000000     0.081933333333    -0.010613   
C15      C      0.393500000000     0.563000000000     0.415266666667    -0.010613   
C15      C      0.393500000000     0.563000000000     0.748600000000    -0.010613   
C15      C      0.643500000000     0.063000000000     0.081933333333    -0.010613   
C15      C      0.643500000000     0.063000000000     0.415266666667    -0.010613   
C15      C      0.643500000000     0.063000000000     0.748600000000    -0.010613   
C15      C      0.643500000000     0.563000000000     0.081933333333    -0.010613   
C15      C      0.643500000000     0.563000000000     0.415266666667    -0.010613   
C15      C      0.643500000000     0.563000000000     0.748600000000    -0.010613   
C15      C      0.893500000000     0.063000000000     0.081933333333    -0.010613   
C15      C      0.893500000000     0.063000000000     0.415266666667    -0.010613   
C15      C      0.893500000000     0.063000000000     0.748600000000    -0.010613   
C15      C      0.893500000000     0.563000000000     0.081933333333    -0.010613   
C15      C      0.893500000000     0.563000000000     0.415266666667    -0.010613   
C15      C      0.893500000000     0.563000000000     0.748600000000    -0.010613   
C16      C      0.115050000000     0.047265000000     0.047266666667    -0.130646   
C16      C      0.115050000000     0.047265000000     0.380600000000    -0.130646   
C16      C      0.115050000000     0.047265000000     0.713933333333    -0.130646   
C16      C      0.115050000000     0.547265000000     0.047266666667    -0.130646   
C16      C      0.115050000000     0.547265000000     0.380600000000    -0.130646   
C16      C      0.115050000000     0.547265000000     0.713933333333    -0.130646   
C16      C      0.365050000000     0.047265000000     0.047266666667    -0.130646   
C16      C      0.365050000000     0.047265000000     0.380600000000    -0.130646   
C16      C      0.365050000000     0.047265000000     0.713933333333    -0.130646   
C16      C      0.365050000000     0.547265000000     0.047266666667    -0.130646   
C16      C      0.365050000000     0.547265000000     0.380600000000    -0.130646   
C16      C      0.365050000000     0.547265000000     0.713933333333    -0.130646   
C16      C      0.615050000000     0.047265000000     0.047266666667    -0.130646   
C16      C      0.615050000000     0.047265000000     0.380600000000    -0.130646   
C16      C      0.615050000000     0.047265000000     0.713933333333    -0.130646   
C16      C      0.615050000000     0.547265000000     0.047266666667    -0.130646   
C16      C      0.615050000000     0.547265000000     0.380600000000    -0.130646   
C16      C      0.615050000000     0.547265000000     0.713933333333    -0.130646   
C16      C      0.865050000000     0.047265000000     0.047266666667    -0.130646   
C16      C      0.865050000000     0.047265000000     0.380600000000    -0.130646   
C16      C      0.865050000000     0.047265000000     0.713933333333    -0.130646   
C16      C      0.865050000000     0.547265000000     0.047266666667    -0.130646   
C16      C      0.865050000000     0.547265000000     0.380600000000    -0.130646   
C16      C      0.865050000000     0.547265000000     0.713933333333    -0.130646   
C17      C      0.167950000000     0.113490000000     0.139833333333     0.089893   
C17      C      0.167950000000     0.113490000000     0.473166666667     0.089893   
C17      C      0.167950000000     0.113490000000     0.806500000000     0.089893   
C17      C      0.167950000000     0.613490000000     0.139833333333     0.089893   
C17      C      0.167950000000     0.613490000000     0.473166666667     0.089893   
C17      C      0.167950000000     0.613490000000     0.806500000000     0.089893   
C17      C      0.417950000000     0.113490000000     0.139833333333     0.089893   
C17      C      0.417950000000     0.113490000000     0.473166666667     0.089893   
C17      C      0.417950000000     0.113490000000     0.806500000000     0.089893   
C17      C      0.417950000000     0.613490000000     0.139833333333     0.089893   
C17      C      0.417950000000     0.613490000000     0.473166666667     0.089893   
C17      C      0.417950000000     0.613490000000     0.806500000000     0.089893   
C17      C      0.667950000000     0.113490000000     0.139833333333     0.089893   
C17      C      0.667950000000     0.113490000000     0.473166666667     0.089893   
C17      C      0.667950000000     0.113490000000     0.806500000000     0.089893   
C17      C      0.667950000000     0.613490000000     0.139833333333     0.089893   
C17      C      0.667950000000     0.613490000000     0.473166666667     0.089893   
C17      C      0.667950000000     0.613490000000     0.806500000000     0.089893   
C17      C      0.917950000000     0.113490000000     0.139833333333     0.089893   
C17      C      0.917950000000     0.113490000000     0.473166666667     0.089893   
C17      C      0.917950000000     0.113490000000     0.806500000000     0.089893   
C17      C      0.917950000000     0.613490000000     0.139833333333     0.089893   
C17      C      0.917950000000     0.613490000000     0.473166666667     0.089893   
C17      C      0.917950000000     0.613490000000     0.806500000000     0.089893   
C18      C      0.173675000000     0.151480000000     0.141700000000    -0.154058   
C18      C      0.173675000000     0.151480000000     0.475033333333    -0.154058   
C18      C      0.173675000000     0.151480000000     0.808366666667    -0.154058   
C18      C      0.173675000000     0.651480000000     0.141700000000    -0.154058   
C18      C      0.173675000000     0.651480000000     0.475033333333    -0.154058   
C18      C      0.173675000000     0.651480000000     0.808366666667    -0.154058   
C18      C      0.423675000000     0.151480000000     0.141700000000    -0.154058   
C18      C      0.423675000000     0.151480000000     0.475033333333    -0.154058   
C18      C      0.423675000000     0.151480000000     0.808366666667    -0.154058   
C18      C      0.423675000000     0.651480000000     0.141700000000    -0.154058   
C18      C      0.423675000000     0.651480000000     0.475033333333    -0.154058   
C18      C      0.423675000000     0.651480000000     0.808366666667    -0.154058   
C18      C      0.673675000000     0.151480000000     0.141700000000    -0.154058   
C18      C      0.673675000000     0.151480000000     0.475033333333    -0.154058   
C18      C      0.673675000000     0.151480000000     0.808366666667    -0.154058   
C18      C      0.673675000000     0.651480000000     0.141700000000    -0.154058   
C18      C      0.673675000000     0.651480000000     0.475033333333    -0.154058   
C18      C      0.673675000000     0.651480000000     0.808366666667    -0.154058   
C18      C      0.923675000000     0.151480000000     0.141700000000    -0.154058   
C18      C      0.923675000000     0.151480000000     0.475033333333    -0.154058   
C18      C      0.923675000000     0.151480000000     0.808366666667    -0.154058   
C18      C      0.923675000000     0.651480000000     0.141700000000    -0.154058   
C18      C      0.923675000000     0.651480000000     0.475033333333    -0.154058   
C18      C      0.923675000000     0.651480000000     0.808366666667    -0.154058   
C19      C      0.134950000000     0.297265000000     0.119400000000    -0.010613   
C19      C      0.134950000000     0.297265000000     0.452733333333    -0.010613   
C19      C      0.134950000000     0.297265000000     0.786066666667    -0.010613   
C19      C      0.134950000000     0.797265000000     0.119400000000    -0.010613   
C19      C      0.134950000000     0.797265000000     0.452733333333    -0.010613   
C19      C      0.134950000000     0.797265000000     0.786066666667    -0.010613   
C19      C      0.384950000000     0.297265000000     0.119400000000    -0.010613   
C19      C      0.384950000000     0.297265000000     0.452733333333    -0.010613   
C19      C      0.384950000000     0.297265000000     0.786066666667    -0.010613   
C19      C      0.384950000000     0.797265000000     0.119400000000    -0.010613   
C19      C      0.384950000000     0.797265000000     0.452733333333    -0.010613   
C19      C      0.384950000000     0.797265000000     0.786066666667    -0.010613   
C19      C      0.634950000000     0.297265000000     0.119400000000    -0.010613   
C19      C      0.634950000000     0.297265000000     0.452733333333    -0.010613   
C19      C      0.634950000000     0.297265000000     0.786066666667    -0.010613   
C19      C      0.634950000000     0.797265000000     0.119400000000    -0.010613   
C19      C      0.634950000000     0.797265000000     0.452733333333    -0.010613   
C19      C      0.634950000000     0.797265000000     0.786066666667    -0.010613   
C19      C      0.884950000000     0.297265000000     0.119400000000    -0.010613   
C19      C      0.884950000000     0.297265000000     0.452733333333    -0.010613   
C19      C      0.884950000000     0.297265000000     0.786066666667    -0.010613   
C19      C      0.884950000000     0.797265000000     0.119400000000    -0.010613   
C19      C      0.884950000000     0.797265000000     0.452733333333    -0.010613   
C19      C      0.884950000000     0.797265000000     0.786066666667    -0.010613   
C20      C      0.106500000000     0.313000000000     0.084733333333     0.128751   
C20      C      0.106500000000     0.313000000000     0.418066666667     0.128751   
C20      C      0.106500000000     0.313000000000     0.751400000000     0.128751   
C20      C      0.106500000000     0.813000000000     0.084733333333     0.128751   
C20      C      0.106500000000     0.813000000000     0.418066666667     0.128751   
C20      C      0.106500000000     0.813000000000     0.751400000000     0.128751   
C20      C      0.356500000000     0.313000000000     0.084733333333     0.128751   
C20      C      0.356500000000     0.313000000000     0.418066666667     0.128751   
C20      C      0.356500000000     0.313000000000     0.751400000000     0.128751   
C20      C      0.356500000000     0.813000000000     0.084733333333     0.128751   
C20      C      0.356500000000     0.813000000000     0.418066666667     0.128751   
C20      C      0.356500000000     0.813000000000     0.751400000000     0.128751   
C20      C      0.606500000000     0.313000000000     0.084733333333     0.128751   
C20      C      0.606500000000     0.313000000000     0.418066666667     0.128751   
C20      C      0.606500000000     0.313000000000     0.751400000000     0.128751   
C20      C      0.606500000000     0.813000000000     0.084733333333     0.128751   
C20      C      0.606500000000     0.813000000000     0.418066666667     0.128751   
C20      C      0.606500000000     0.813000000000     0.751400000000     0.128751   
C20      C      0.856500000000     0.313000000000     0.084733333333     0.128751   
C20      C      0.856500000000     0.313000000000     0.418066666667     0.128751   
C20      C      0.856500000000     0.313000000000     0.751400000000     0.128751   
C20      C      0.856500000000     0.813000000000     0.084733333333     0.128751   
C20      C      0.856500000000     0.813000000000     0.418066666667     0.128751   
C20      C      0.856500000000     0.813000000000     0.751400000000     0.128751   
C21      C      0.111675000000     0.346860000000     0.065566666667     0.089893   
C21      C      0.111675000000     0.346860000000     0.398900000000     0.089893   
C21      C      0.111675000000     0.346860000000     0.732233333333     0.089893   
C21      C      0.111675000000     0.846860000000     0.065566666667     0.089893   
C21      C      0.111675000000     0.846860000000     0.398900000000     0.089893   
C21      C      0.111675000000     0.846860000000     0.732233333333     0.089893   
C21      C      0.361675000000     0.346860000000     0.065566666667     0.089893   
C21      C      0.361675000000     0.346860000000     0.398900000000     0.089893   
C21      C      0.361675000000     0.346860000000     0.732233333333     0.089893   
C21      C      0.361675000000     0.846860000000     0.065566666667     0.089893   
C21      C      0.361675000000     0.846860000000     0.398900000000     0.089893   
C21      C      0.361675000000     0.846860000000     0.732233333333     0.089893   
C21      C      0.611675000000     0.346860000000     0.065566666667     0.089893   
C21      C      0.611675000000     0.346860000000     0.398900000000     0.089893   
C21      C      0.611675000000     0.346860000000     0.732233333333     0.089893   
C21      C      0.611675000000     0.846860000000     0.065566666667     0.089893   
C21      C      0.611675000000     0.846860000000     0.398900000000     0.089893   
C21      C      0.611675000000     0.846860000000     0.732233333333     0.089893   
C21      C      0.861675000000     0.346860000000     0.065566666667     0.089893   
C21      C      0.861675000000     0.346860000000     0.398900000000     0.089893   
C21      C      0.861675000000     0.346860000000     0.732233333333     0.089893   
C21      C      0.861675000000     0.846860000000     0.065566666667     0.089893   
C21      C      0.861675000000     0.846860000000     0.398900000000     0.089893   
C21      C      0.861675000000     0.846860000000     0.732233333333     0.089893   
C22      C      0.146200000000     0.364185000000     0.083866666667    -0.150167   
C22      C      0.146200000000     0.364185000000     0.417200000000    -0.150167   
C22      C      0.146200000000     0.364185000000     0.750533333333    -0.150167   
C22      C      0.146200000000     0.864185000000     0.083866666667    -0.150167   
C22      C      0.146200000000     0.864185000000     0.417200000000    -0.150167   
C22      C      0.146200000000     0.864185000000     0.750533333333    -0.150167   
C22      C      0.396200000000     0.364185000000     0.083866666667    -0.150167   
C22      C      0.396200000000     0.364185000000     0.417200000000    -0.150167   
C22      C      0.396200000000     0.364185000000     0.750533333333    -0.150167   
C22      C      0.396200000000     0.864185000000     0.083866666667    -0.150167   
C22      C      0.396200000000     0.864185000000     0.417200000000    -0.150167   
C22      C      0.396200000000     0.864185000000     0.750533333333    -0.150167   
C22      C      0.646200000000     0.364185000000     0.083866666667    -0.150167   
C22      C      0.646200000000     0.364185000000     0.417200000000    -0.150167   
C22      C      0.646200000000     0.364185000000     0.750533333333    -0.150167   
C22      C      0.646200000000     0.864185000000     0.083866666667    -0.150167   
C22      C      0.646200000000     0.864185000000     0.417200000000    -0.150167   
C22      C      0.646200000000     0.864185000000     0.750533333333    -0.150167   
C22      C      0.896200000000     0.364185000000     0.083866666667    -0.150167   
C22      C      0.896200000000     0.364185000000     0.417200000000    -0.150167   
C22      C      0.896200000000     0.364185000000     0.750533333333    -0.150167   
C22      C      0.896200000000     0.864185000000     0.083866666667    -0.150167   
C22      C      0.896200000000     0.864185000000     0.417200000000    -0.150167   
C22      C      0.896200000000     0.864185000000     0.750533333333    -0.150167   
C23      C      0.173425000000     0.346940000000     0.118833333333     0.004782   
C23      C      0.173425000000     0.346940000000     0.452166666667     0.004782   
C23      C      0.173425000000     0.346940000000     0.785500000000     0.004782   
C23      C      0.173425000000     0.846940000000     0.118833333333     0.004782   
C23      C      0.173425000000     0.846940000000     0.452166666667     0.004782   
C23      C      0.173425000000     0.846940000000     0.785500000000     0.004782   
C23      C      0.423425000000     0.346940000000     0.118833333333     0.004782   
C23      C      0.423425000000     0.346940000000     0.452166666667     0.004782   
C23      C      0.423425000000     0.346940000000     0.785500000000     0.004782   
C23      C      0.423425000000     0.846940000000     0.118833333333     0.004782   
C23      C      0.423425000000     0.846940000000     0.452166666667     0.004782   
C23      C      0.423425000000     0.846940000000     0.785500000000     0.004782   
C23      C      0.673425000000     0.346940000000     0.118833333333     0.004782   
C23      C      0.673425000000     0.346940000000     0.452166666667     0.004782   
C23      C      0.673425000000     0.346940000000     0.785500000000     0.004782   
C23      C      0.673425000000     0.846940000000     0.118833333333     0.004782   
C23      C      0.673425000000     0.846940000000     0.452166666667     0.004782   
C23      C      0.673425000000     0.846940000000     0.785500000000     0.004782   
C23      C      0.923425000000     0.346940000000     0.118833333333     0.004782   
C23      C      0.923425000000     0.346940000000     0.452166666667     0.004782   
C23      C      0.923425000000     0.346940000000     0.785500000000     0.004782   
C23      C      0.923425000000     0.846940000000     0.118833333333     0.004782   
C23      C      0.923425000000     0.846940000000     0.452166666667     0.004782   
C23      C      0.923425000000     0.846940000000     0.785500000000     0.004782   
C24      C      0.047550000000     0.416945000000     0.323300000000    -0.184607   
C24      C      0.047550000000     0.416945000000     0.656633333333    -0.184607   
C24      C      0.047550000000     0.416945000000     0.989966666667    -0.184607   
C24      C      0.047550000000     0.916945000000     0.323300000000    -0.184607   
C24      C      0.047550000000     0.916945000000     0.656633333333    -0.184607   
C24      C      0.047550000000     0.916945000000     0.989966666667    -0.184607   
C24      C      0.297550000000     0.416945000000     0.323300000000    -0.184607   
C24      C      0.297550000000     0.416945000000     0.656633333333    -0.184607   
C24      C      0.297550000000     0.416945000000     0.989966666667    -0.184607   
C24      C      0.297550000000     0.916945000000     0.323300000000    -0.184607   
C24      C      0.297550000000     0.916945000000     0.656633333333    -0.184607   
C24      C      0.297550000000     0.916945000000     0.989966666667    -0.184607   
C24      C      0.547550000000     0.416945000000     0.323300000000    -0.184607   
C24      C      0.547550000000     0.416945000000     0.656633333333    -0.184607   
C24      C      0.547550000000     0.416945000000     0.989966666667    -0.184607   
C24      C      0.547550000000     0.916945000000     0.323300000000    -0.184607   
C24      C      0.547550000000     0.916945000000     0.656633333333    -0.184607   
C24      C      0.547550000000     0.916945000000     0.989966666667    -0.184607   
C24      C      0.797550000000     0.416945000000     0.323300000000    -0.184607   
C24      C      0.797550000000     0.416945000000     0.656633333333    -0.184607   
C24      C      0.797550000000     0.416945000000     0.989966666667    -0.184607   
C24      C      0.797550000000     0.916945000000     0.323300000000    -0.184607   
C24      C      0.797550000000     0.916945000000     0.656633333333    -0.184607   
C24      C      0.797550000000     0.916945000000     0.989966666667    -0.184607   
C25      C      0.167950000000     0.136510000000     0.306500000000     0.558541   
C25      C      0.167950000000     0.136510000000     0.639833333333     0.558541   
C25      C      0.167950000000     0.136510000000     0.973166666667     0.558541   
C25      C      0.167950000000     0.636510000000     0.306500000000     0.558541   
C25      C      0.167950000000     0.636510000000     0.639833333333     0.558541   
C25      C      0.167950000000     0.636510000000     0.973166666667     0.558541   
C25      C      0.417950000000     0.136510000000     0.306500000000     0.558541   
C25      C      0.417950000000     0.136510000000     0.639833333333     0.558541   
C25      C      0.417950000000     0.136510000000     0.973166666667     0.558541   
C25      C      0.417950000000     0.636510000000     0.306500000000     0.558541   
C25      C      0.417950000000     0.636510000000     0.639833333333     0.558541   
C25      C      0.417950000000     0.636510000000     0.973166666667     0.558541   
C25      C      0.667950000000     0.136510000000     0.306500000000     0.558541   
C25      C      0.667950000000     0.136510000000     0.639833333333     0.558541   
C25      C      0.667950000000     0.136510000000     0.973166666667     0.558541   
C25      C      0.667950000000     0.636510000000     0.306500000000     0.558541   
C25      C      0.667950000000     0.636510000000     0.639833333333     0.558541   
C25      C      0.667950000000     0.636510000000     0.973166666667     0.558541   
C25      C      0.917950000000     0.136510000000     0.306500000000     0.558541   
C25      C      0.917950000000     0.136510000000     0.639833333333     0.558541   
C25      C      0.917950000000     0.136510000000     0.973166666667     0.558541   
C25      C      0.917950000000     0.636510000000     0.306500000000     0.558541   
C25      C      0.917950000000     0.636510000000     0.639833333333     0.558541   
C25      C      0.917950000000     0.636510000000     0.973166666667     0.558541   
C26      C      0.040700000000     0.457590000000     0.322900000000     0.567036   
C26      C      0.040700000000     0.457590000000     0.656233333333     0.567036   
C26      C      0.040700000000     0.457590000000     0.989566666667     0.567036   
C26      C      0.040700000000     0.957590000000     0.322900000000     0.567036   
C26      C      0.040700000000     0.957590000000     0.656233333333     0.567036   
C26      C      0.040700000000     0.957590000000     0.989566666667     0.567036   
C26      C      0.290700000000     0.457590000000     0.322900000000     0.567036   
C26      C      0.290700000000     0.457590000000     0.656233333333     0.567036   
C26      C      0.290700000000     0.457590000000     0.989566666667     0.567036   
C26      C      0.290700000000     0.957590000000     0.322900000000     0.567036   
C26      C      0.290700000000     0.957590000000     0.656233333333     0.567036   
C26      C      0.290700000000     0.957590000000     0.989566666667     0.567036   
C26      C      0.540700000000     0.457590000000     0.322900000000     0.567036   
C26      C      0.540700000000     0.457590000000     0.656233333333     0.567036   
C26      C      0.540700000000     0.457590000000     0.989566666667     0.567036   
C26      C      0.540700000000     0.957590000000     0.322900000000     0.567036   
C26      C      0.540700000000     0.957590000000     0.656233333333     0.567036   
C26      C      0.540700000000     0.957590000000     0.989566666667     0.567036   
C26      C      0.790700000000     0.457590000000     0.322900000000     0.567036   
C26      C      0.790700000000     0.457590000000     0.656233333333     0.567036   
C26      C      0.790700000000     0.457590000000     0.989566666667     0.567036   
C26      C      0.790700000000     0.957590000000     0.322900000000     0.567036   
C26      C      0.790700000000     0.957590000000     0.656233333333     0.567036   
C26      C      0.790700000000     0.957590000000     0.989566666667     0.567036   
C27      C      0.190850000000     0.091575000000     0.174900000000     0.107208   
C27      C      0.190850000000     0.091575000000     0.508233333333     0.107208   
C27      C      0.190850000000     0.091575000000     0.841566666667     0.107208   
C27      C      0.190850000000     0.591575000000     0.174900000000     0.107208   
C27      C      0.190850000000     0.591575000000     0.508233333333     0.107208   
C27      C      0.190850000000     0.591575000000     0.841566666667     0.107208   
C27      C      0.440850000000     0.091575000000     0.174900000000     0.107208   
C27      C      0.440850000000     0.091575000000     0.508233333333     0.107208   
C27      C      0.440850000000     0.091575000000     0.841566666667     0.107208   
C27      C      0.440850000000     0.591575000000     0.174900000000     0.107208   
C27      C      0.440850000000     0.591575000000     0.508233333333     0.107208   
C27      C      0.440850000000     0.591575000000     0.841566666667     0.107208   
C27      C      0.690850000000     0.091575000000     0.174900000000     0.107208   
C27      C      0.690850000000     0.091575000000     0.508233333333     0.107208   
C27      C      0.690850000000     0.091575000000     0.841566666667     0.107208   
C27      C      0.690850000000     0.591575000000     0.174900000000     0.107208   
C27      C      0.690850000000     0.591575000000     0.508233333333     0.107208   
C27      C      0.690850000000     0.591575000000     0.841566666667     0.107208   
C27      C      0.940850000000     0.091575000000     0.174900000000     0.107208   
C27      C      0.940850000000     0.091575000000     0.508233333333     0.107208   
C27      C      0.940850000000     0.091575000000     0.841566666667     0.107208   
C27      C      0.940850000000     0.591575000000     0.174900000000     0.107208   
C27      C      0.940850000000     0.591575000000     0.508233333333     0.107208   
C27      C      0.940850000000     0.591575000000     0.841566666667     0.107208   
C28      C      0.218975000000     0.107015000000     0.211200000000    -0.154058   
C28      C      0.218975000000     0.107015000000     0.544533333333    -0.154058   
C28      C      0.218975000000     0.107015000000     0.877866666667    -0.154058   
C28      C      0.218975000000     0.607015000000     0.211200000000    -0.154058   
C28      C      0.218975000000     0.607015000000     0.544533333333    -0.154058   
C28      C      0.218975000000     0.607015000000     0.877866666667    -0.154058   
C28      C      0.468975000000     0.107015000000     0.211200000000    -0.154058   
C28      C      0.468975000000     0.107015000000     0.544533333333    -0.154058   
C28      C      0.468975000000     0.107015000000     0.877866666667    -0.154058   
C28      C      0.468975000000     0.607015000000     0.211200000000    -0.154058   
C28      C      0.468975000000     0.607015000000     0.544533333333    -0.154058   
C28      C      0.468975000000     0.607015000000     0.877866666667    -0.154058   
C28      C      0.718975000000     0.107015000000     0.211200000000    -0.154058   
C28      C      0.718975000000     0.107015000000     0.544533333333    -0.154058   
C28      C      0.718975000000     0.107015000000     0.877866666667    -0.154058   
C28      C      0.718975000000     0.607015000000     0.211200000000    -0.154058   
C28      C      0.718975000000     0.607015000000     0.544533333333    -0.154058   
C28      C      0.718975000000     0.607015000000     0.877866666667    -0.154058   
C28      C      0.968975000000     0.107015000000     0.211200000000    -0.154058   
C28      C      0.968975000000     0.107015000000     0.544533333333    -0.154058   
C28      C      0.968975000000     0.107015000000     0.877866666667    -0.154058   
C28      C      0.968975000000     0.607015000000     0.211200000000    -0.154058   
C28      C      0.968975000000     0.607015000000     0.544533333333    -0.154058   
C28      C      0.968975000000     0.607015000000     0.877866666667    -0.154058   
C29      C      0.242950000000     0.083125000000     0.249533333333    -0.184604   
C29      C      0.242950000000     0.083125000000     0.582866666667    -0.184604   
C29      C      0.242950000000     0.083125000000     0.916200000000    -0.184604   
C29      C      0.242950000000     0.583125000000     0.249533333333    -0.184604   
C29      C      0.242950000000     0.583125000000     0.582866666667    -0.184604   
C29      C      0.242950000000     0.583125000000     0.916200000000    -0.184604   
C29      C      0.492950000000     0.083125000000     0.249533333333    -0.184604   
C29      C      0.492950000000     0.083125000000     0.582866666667    -0.184604   
C29      C      0.492950000000     0.083125000000     0.916200000000    -0.184604   
C29      C      0.492950000000     0.583125000000     0.249533333333    -0.184604   
C29      C      0.492950000000     0.583125000000     0.582866666667    -0.184604   
C29      C      0.492950000000     0.583125000000     0.916200000000    -0.184604   
C29      C      0.742950000000     0.083125000000     0.249533333333    -0.184604   
C29      C      0.742950000000     0.083125000000     0.582866666667    -0.184604   
C29      C      0.742950000000     0.083125000000     0.916200000000    -0.184604   
C29      C      0.742950000000     0.583125000000     0.249533333333    -0.184604   
C29      C      0.742950000000     0.583125000000     0.582866666667    -0.184604   
C29      C      0.742950000000     0.583125000000     0.916200000000    -0.184604   
C29      C      0.992950000000     0.083125000000     0.249533333333    -0.184604   
C29      C      0.992950000000     0.083125000000     0.582866666667    -0.184604   
C29      C      0.992950000000     0.083125000000     0.916200000000    -0.184604   
C29      C      0.992950000000     0.583125000000     0.249533333333    -0.184604   
C29      C      0.992950000000     0.583125000000     0.582866666667    -0.184604   
C29      C      0.992950000000     0.583125000000     0.916200000000    -0.184604   
C30      C      0.225000000000     0.144635000000     0.211300000000     0.107212   
C30      C      0.225000000000     0.144635000000     0.544633333333     0.107212   
C30      C      0.225000000000     0.144635000000     0.877966666667     0.107212   
C30      C      0.225000000000     0.644635000000     0.211300000000     0.107212   
C30      C      0.225000000000     0.644635000000     0.544633333333     0.107212   
C30      C      0.225000000000     0.644635000000     0.877966666667     0.107212   
C30      C      0.475000000000     0.144635000000     0.211300000000     0.107212   
C30      C      0.475000000000     0.144635000000     0.544633333333     0.107212   
C30      C      0.475000000000     0.144635000000     0.877966666667     0.107212   
C30      C      0.475000000000     0.644635000000     0.211300000000     0.107212   
C30      C      0.475000000000     0.644635000000     0.544633333333     0.107212   
C30      C      0.475000000000     0.644635000000     0.877966666667     0.107212   
C30      C      0.725000000000     0.144635000000     0.211300000000     0.107212   
C30      C      0.725000000000     0.144635000000     0.544633333333     0.107212   
C30      C      0.725000000000     0.144635000000     0.877966666667     0.107212   
C30      C      0.725000000000     0.644635000000     0.211300000000     0.107212   
C30      C      0.725000000000     0.644635000000     0.544633333333     0.107212   
C30      C      0.725000000000     0.644635000000     0.877966666667     0.107212   
C30      C      0.975000000000     0.144635000000     0.211300000000     0.107212   
C30      C      0.975000000000     0.144635000000     0.544633333333     0.107212   
C30      C      0.975000000000     0.144635000000     0.877966666667     0.107212   
C30      C      0.975000000000     0.644635000000     0.211300000000     0.107212   
C30      C      0.975000000000     0.644635000000     0.544633333333     0.107212   
C30      C      0.975000000000     0.644635000000     0.877966666667     0.107212   
C31      C      0.209300000000     0.207590000000     0.177100000000    -0.130646   
C31      C      0.209300000000     0.207590000000     0.510433333333    -0.130646   
C31      C      0.209300000000     0.207590000000     0.843766666667    -0.130646   
C31      C      0.209300000000     0.707590000000     0.177100000000    -0.130646   
C31      C      0.209300000000     0.707590000000     0.510433333333    -0.130646   
C31      C      0.209300000000     0.707590000000     0.843766666667    -0.130646   
C31      C      0.459300000000     0.207590000000     0.177100000000    -0.130646   
C31      C      0.459300000000     0.207590000000     0.510433333333    -0.130646   
C31      C      0.459300000000     0.207590000000     0.843766666667    -0.130646   
C31      C      0.459300000000     0.707590000000     0.177100000000    -0.130646   
C31      C      0.459300000000     0.707590000000     0.510433333333    -0.130646   
C31      C      0.459300000000     0.707590000000     0.843766666667    -0.130646   
C31      C      0.709300000000     0.207590000000     0.177100000000    -0.130646   
C31      C      0.709300000000     0.207590000000     0.510433333333    -0.130646   
C31      C      0.709300000000     0.207590000000     0.843766666667    -0.130646   
C31      C      0.709300000000     0.707590000000     0.177100000000    -0.130646   
C31      C      0.709300000000     0.707590000000     0.510433333333    -0.130646   
C31      C      0.709300000000     0.707590000000     0.843766666667    -0.130646   
C31      C      0.959300000000     0.207590000000     0.177100000000    -0.130646   
C31      C      0.959300000000     0.207590000000     0.510433333333    -0.130646   
C31      C      0.959300000000     0.207590000000     0.843766666667    -0.130646   
C31      C      0.959300000000     0.707590000000     0.177100000000    -0.130646   
C31      C      0.959300000000     0.707590000000     0.510433333333    -0.130646   
C31      C      0.959300000000     0.707590000000     0.843766666667    -0.130646   
C32      C      0.202450000000     0.166945000000     0.176700000000     0.128751   
C32      C      0.202450000000     0.166945000000     0.510033333333     0.128751   
C32      C      0.202450000000     0.166945000000     0.843366666667     0.128751   
C32      C      0.202450000000     0.666945000000     0.176700000000     0.128751   
C32      C      0.202450000000     0.666945000000     0.510033333333     0.128751   
C32      C      0.202450000000     0.666945000000     0.843366666667     0.128751   
C32      C      0.452450000000     0.166945000000     0.176700000000     0.128751   
C32      C      0.452450000000     0.166945000000     0.510033333333     0.128751   
C32      C      0.452450000000     0.166945000000     0.843366666667     0.128751   
C32      C      0.452450000000     0.666945000000     0.176700000000     0.128751   
C32      C      0.452450000000     0.666945000000     0.510033333333     0.128751   
C32      C      0.452450000000     0.666945000000     0.843366666667     0.128751   
C32      C      0.702450000000     0.166945000000     0.176700000000     0.128751   
C32      C      0.702450000000     0.166945000000     0.510033333333     0.128751   
C32      C      0.702450000000     0.166945000000     0.843366666667     0.128751   
C32      C      0.702450000000     0.666945000000     0.176700000000     0.128751   
C32      C      0.702450000000     0.666945000000     0.510033333333     0.128751   
C32      C      0.702450000000     0.666945000000     0.843366666667     0.128751   
C32      C      0.952450000000     0.166945000000     0.176700000000     0.128751   
C32      C      0.952450000000     0.166945000000     0.510033333333     0.128751   
C32      C      0.952450000000     0.166945000000     0.843366666667     0.128751   
C32      C      0.952450000000     0.666945000000     0.176700000000     0.128751   
C32      C      0.952450000000     0.666945000000     0.510033333333     0.128751   
C32      C      0.952450000000     0.666945000000     0.843366666667     0.128751   
C33      C      0.025000000000     0.394635000000     0.288700000000    -0.187745   
C33      C      0.025000000000     0.394635000000     0.622033333333    -0.187745   
C33      C      0.025000000000     0.394635000000     0.955366666667    -0.187745   
C33      C      0.025000000000     0.894635000000     0.288700000000    -0.187745   
C33      C      0.025000000000     0.894635000000     0.622033333333    -0.187745   
C33      C      0.025000000000     0.894635000000     0.955366666667    -0.187745   
C33      C      0.275000000000     0.394635000000     0.288700000000    -0.187745   
C33      C      0.275000000000     0.394635000000     0.622033333333    -0.187745   
C33      C      0.275000000000     0.394635000000     0.955366666667    -0.187745   
C33      C      0.275000000000     0.894635000000     0.288700000000    -0.187745   
C33      C      0.275000000000     0.894635000000     0.622033333333    -0.187745   
C33      C      0.275000000000     0.894635000000     0.955366666667    -0.187745   
C33      C      0.525000000000     0.394635000000     0.288700000000    -0.187745   
C33      C      0.525000000000     0.394635000000     0.622033333333    -0.187745   
C33      C      0.525000000000     0.394635000000     0.955366666667    -0.187745   
C33      C      0.525000000000     0.894635000000     0.288700000000    -0.187745   
C33      C      0.525000000000     0.894635000000     0.622033333333    -0.187745   
C33      C      0.525000000000     0.894635000000     0.955366666667    -0.187745   
C33      C      0.775000000000     0.394635000000     0.288700000000    -0.187745   
C33      C      0.775000000000     0.394635000000     0.622033333333    -0.187745   
C33      C      0.775000000000     0.394635000000     0.955366666667    -0.187745   
C33      C      0.775000000000     0.894635000000     0.288700000000    -0.187745   
C33      C      0.775000000000     0.894635000000     0.622033333333    -0.187745   
C33      C      0.775000000000     0.894635000000     0.955366666667    -0.187745   
C34      C      0.115050000000     0.202735000000     0.213933333333     0.065046   
C34      C      0.115050000000     0.202735000000     0.547266666667     0.065046   
C34      C      0.115050000000     0.202735000000     0.880600000000     0.065046   
C34      C      0.115050000000     0.702735000000     0.213933333333     0.065046   
C34      C      0.115050000000     0.702735000000     0.547266666667     0.065046   
C34      C      0.115050000000     0.702735000000     0.880600000000     0.065046   
C34      C      0.365050000000     0.202735000000     0.213933333333     0.065046   
C34      C      0.365050000000     0.202735000000     0.547266666667     0.065046   
C34      C      0.365050000000     0.202735000000     0.880600000000     0.065046   
C34      C      0.365050000000     0.702735000000     0.213933333333     0.065046   
C34      C      0.365050000000     0.702735000000     0.547266666667     0.065046   
C34      C      0.365050000000     0.702735000000     0.880600000000     0.065046   
C34      C      0.615050000000     0.202735000000     0.213933333333     0.065046   
C34      C      0.615050000000     0.202735000000     0.547266666667     0.065046   
C34      C      0.615050000000     0.202735000000     0.880600000000     0.065046   
C34      C      0.615050000000     0.702735000000     0.213933333333     0.065046   
C34      C      0.615050000000     0.702735000000     0.547266666667     0.065046   
C34      C      0.615050000000     0.702735000000     0.880600000000     0.065046   
C34      C      0.865050000000     0.202735000000     0.213933333333     0.065046   
C34      C      0.865050000000     0.202735000000     0.547266666667     0.065046   
C34      C      0.865050000000     0.202735000000     0.880600000000     0.065046   
C34      C      0.865050000000     0.702735000000     0.213933333333     0.065046   
C34      C      0.865050000000     0.702735000000     0.547266666667     0.065046   
C34      C      0.865050000000     0.702735000000     0.880600000000     0.065046   
C35      C      0.076325000000     0.401480000000     0.024966666667    -0.187745   
C35      C      0.076325000000     0.401480000000     0.358300000000    -0.187745   
C35      C      0.076325000000     0.401480000000     0.691633333333    -0.187745   
C35      C      0.076325000000     0.901480000000     0.024966666667    -0.187745   
C35      C      0.076325000000     0.901480000000     0.358300000000    -0.187745   
C35      C      0.076325000000     0.901480000000     0.691633333333    -0.187745   
C35      C      0.326325000000     0.401480000000     0.024966666667    -0.187745   
C35      C      0.326325000000     0.401480000000     0.358300000000    -0.187745   
C35      C      0.326325000000     0.401480000000     0.691633333333    -0.187745   
C35      C      0.326325000000     0.901480000000     0.024966666667    -0.187745   
C35      C      0.326325000000     0.901480000000     0.358300000000    -0.187745   
C35      C      0.326325000000     0.901480000000     0.691633333333    -0.187745   
C35      C      0.576325000000     0.401480000000     0.024966666667    -0.187745   
C35      C      0.576325000000     0.401480000000     0.358300000000    -0.187745   
C35      C      0.576325000000     0.401480000000     0.691633333333    -0.187745   
C35      C      0.576325000000     0.901480000000     0.024966666667    -0.187745   
C35      C      0.576325000000     0.901480000000     0.358300000000    -0.187745   
C35      C      0.576325000000     0.901480000000     0.691633333333    -0.187745   
C35      C      0.826325000000     0.401480000000     0.024966666667    -0.187745   
C35      C      0.826325000000     0.401480000000     0.358300000000    -0.187745   
C35      C      0.826325000000     0.401480000000     0.691633333333    -0.187745   
C35      C      0.826325000000     0.901480000000     0.024966666667    -0.187745   
C35      C      0.826325000000     0.901480000000     0.358300000000    -0.187745   
C35      C      0.826325000000     0.901480000000     0.691633333333    -0.187745   
C36      C      0.047550000000     0.333055000000     0.156633333333     0.912476   
C36      C      0.047550000000     0.333055000000     0.489966666667     0.912476   
C36      C      0.047550000000     0.333055000000     0.823300000000     0.912476   
C36      C      0.047550000000     0.833055000000     0.156633333333     0.912476   
C36      C      0.047550000000     0.833055000000     0.489966666667     0.912476   
C36      C      0.047550000000     0.833055000000     0.823300000000     0.912476   
C36      C      0.297550000000     0.333055000000     0.156633333333     0.912476   
C36      C      0.297550000000     0.333055000000     0.489966666667     0.912476   
C36      C      0.297550000000     0.333055000000     0.823300000000     0.912476   
C36      C      0.297550000000     0.833055000000     0.156633333333     0.912476   
C36      C      0.297550000000     0.833055000000     0.489966666667     0.912476   
C36      C      0.297550000000     0.833055000000     0.823300000000     0.912476   
C36      C      0.547550000000     0.333055000000     0.156633333333     0.912476   
C36      C      0.547550000000     0.333055000000     0.489966666667     0.912476   
C36      C      0.547550000000     0.333055000000     0.823300000000     0.912476   
C36      C      0.547550000000     0.833055000000     0.156633333333     0.912476   
C36      C      0.547550000000     0.833055000000     0.489966666667     0.912476   
C36      C      0.547550000000     0.833055000000     0.823300000000     0.912476   
C36      C      0.797550000000     0.333055000000     0.156633333333     0.912476   
C36      C      0.797550000000     0.333055000000     0.489966666667     0.912476   
C36      C      0.797550000000     0.333055000000     0.823300000000     0.912476   
C36      C      0.797550000000     0.833055000000     0.156633333333     0.912476   
C36      C      0.797550000000     0.833055000000     0.489966666667     0.912476   
C36      C      0.797550000000     0.833055000000     0.823300000000     0.912476   
C37      C      0.111675000000     0.403140000000     0.232233333333     0.912476   
C37      C      0.111675000000     0.403140000000     0.565566666667     0.912476   
C37      C      0.111675000000     0.403140000000     0.898900000000     0.912476   
C37      C      0.111675000000     0.903140000000     0.232233333333     0.912476   
C37      C      0.111675000000     0.903140000000     0.565566666667     0.912476   
C37      C      0.111675000000     0.903140000000     0.898900000000     0.912476   
C37      C      0.361675000000     0.403140000000     0.232233333333     0.912476   
C37      C      0.361675000000     0.403140000000     0.565566666667     0.912476   
C37      C      0.361675000000     0.403140000000     0.898900000000     0.912476   
C37      C      0.361675000000     0.903140000000     0.232233333333     0.912476   
C37      C      0.361675000000     0.903140000000     0.565566666667     0.912476   
C37      C      0.361675000000     0.903140000000     0.898900000000     0.912476   
C37      C      0.611675000000     0.403140000000     0.232233333333     0.912476   
C37      C      0.611675000000     0.403140000000     0.565566666667     0.912476   
C37      C      0.611675000000     0.403140000000     0.898900000000     0.912476   
C37      C      0.611675000000     0.903140000000     0.232233333333     0.912476   
C37      C      0.611675000000     0.903140000000     0.565566666667     0.912476   
C37      C      0.611675000000     0.903140000000     0.898900000000     0.912476   
C37      C      0.861675000000     0.403140000000     0.232233333333     0.912476   
C37      C      0.861675000000     0.403140000000     0.565566666667     0.912476   
C37      C      0.861675000000     0.403140000000     0.898900000000     0.912476   
C37      C      0.861675000000     0.903140000000     0.232233333333     0.912476   
C37      C      0.861675000000     0.903140000000     0.565566666667     0.912476   
C37      C      0.861675000000     0.903140000000     0.898900000000     0.912476   
C38      C      0.134950000000     0.452735000000     0.286066666667     0.912476   
C38      C      0.134950000000     0.452735000000     0.619400000000     0.912476   
C38      C      0.134950000000     0.452735000000     0.952733333333     0.912476   
C38      C      0.134950000000     0.952735000000     0.286066666667     0.912476   
C38      C      0.134950000000     0.952735000000     0.619400000000     0.912476   
C38      C      0.134950000000     0.952735000000     0.952733333333     0.912476   
C38      C      0.384950000000     0.452735000000     0.286066666667     0.912476   
C38      C      0.384950000000     0.452735000000     0.619400000000     0.912476   
C38      C      0.384950000000     0.452735000000     0.952733333333     0.912476   
C38      C      0.384950000000     0.952735000000     0.286066666667     0.912476   
C38      C      0.384950000000     0.952735000000     0.619400000000     0.912476   
C38      C      0.384950000000     0.952735000000     0.952733333333     0.912476   
C38      C      0.634950000000     0.452735000000     0.286066666667     0.912476   
C38      C      0.634950000000     0.452735000000     0.619400000000     0.912476   
C38      C      0.634950000000     0.452735000000     0.952733333333     0.912476   
C38      C      0.634950000000     0.952735000000     0.286066666667     0.912476   
C38      C      0.634950000000     0.952735000000     0.619400000000     0.912476   
C38      C      0.634950000000     0.952735000000     0.952733333333     0.912476   
C38      C      0.884950000000     0.452735000000     0.286066666667     0.912476   
C38      C      0.884950000000     0.452735000000     0.619400000000     0.912476   
C38      C      0.884950000000     0.452735000000     0.952733333333     0.912476   
C38      C      0.884950000000     0.952735000000     0.286066666667     0.912476   
C38      C      0.884950000000     0.952735000000     0.619400000000     0.912476   
C38      C      0.884950000000     0.952735000000     0.952733333333     0.912476   
C39      C      0.059150000000     0.408425000000     0.158433333333     0.912476   
C39      C      0.059150000000     0.408425000000     0.491766666667     0.912476   
C39      C      0.059150000000     0.408425000000     0.825100000000     0.912476   
C39      C      0.059150000000     0.908425000000     0.158433333333     0.912476   
C39      C      0.059150000000     0.908425000000     0.491766666667     0.912476   
C39      C      0.059150000000     0.908425000000     0.825100000000     0.912476   
C39      C      0.309150000000     0.408425000000     0.158433333333     0.912476   
C39      C      0.309150000000     0.408425000000     0.491766666667     0.912476   
C39      C      0.309150000000     0.408425000000     0.825100000000     0.912476   
C39      C      0.309150000000     0.908425000000     0.158433333333     0.912476   
C39      C      0.309150000000     0.908425000000     0.491766666667     0.912476   
C39      C      0.309150000000     0.908425000000     0.825100000000     0.912476   
C39      C      0.559150000000     0.408425000000     0.158433333333     0.912476   
C39      C      0.559150000000     0.408425000000     0.491766666667     0.912476   
C39      C      0.559150000000     0.408425000000     0.825100000000     0.912476   
C39      C      0.559150000000     0.908425000000     0.158433333333     0.912476   
C39      C      0.559150000000     0.908425000000     0.491766666667     0.912476   
C39      C      0.559150000000     0.908425000000     0.825100000000     0.912476   
C39      C      0.809150000000     0.408425000000     0.158433333333     0.912476   
C39      C      0.809150000000     0.408425000000     0.491766666667     0.912476   
C39      C      0.809150000000     0.408425000000     0.825100000000     0.912476   
C39      C      0.809150000000     0.908425000000     0.158433333333     0.912476   
C39      C      0.809150000000     0.908425000000     0.491766666667     0.912476   
C39      C      0.809150000000     0.908425000000     0.825100000000     0.912476   
C40      C      0.031025000000     0.392985000000     0.122133333333     0.124859   
C40      C      0.031025000000     0.392985000000     0.455466666667     0.124859   
C40      C      0.031025000000     0.392985000000     0.788800000000     0.124859   
C40      C      0.031025000000     0.892985000000     0.122133333333     0.124859   
C40      C      0.031025000000     0.892985000000     0.455466666667     0.124859   
C40      C      0.031025000000     0.892985000000     0.788800000000     0.124859   
C40      C      0.281025000000     0.392985000000     0.122133333333     0.124859   
C40      C      0.281025000000     0.392985000000     0.455466666667     0.124859   
C40      C      0.281025000000     0.392985000000     0.788800000000     0.124859   
C40      C      0.281025000000     0.892985000000     0.122133333333     0.124859   
C40      C      0.281025000000     0.892985000000     0.455466666667     0.124859   
C40      C      0.281025000000     0.892985000000     0.788800000000     0.124859   
C40      C      0.531025000000     0.392985000000     0.122133333333     0.124859   
C40      C      0.531025000000     0.392985000000     0.455466666667     0.124859   
C40      C      0.531025000000     0.392985000000     0.788800000000     0.124859   
C40      C      0.531025000000     0.892985000000     0.122133333333     0.124859   
C40      C      0.531025000000     0.892985000000     0.455466666667     0.124859   
C40      C      0.531025000000     0.892985000000     0.788800000000     0.124859   
C40      C      0.781025000000     0.392985000000     0.122133333333     0.124859   
C40      C      0.781025000000     0.392985000000     0.455466666667     0.124859   
C40      C      0.781025000000     0.392985000000     0.788800000000     0.124859   
C40      C      0.781025000000     0.892985000000     0.122133333333     0.124859   
C40      C      0.781025000000     0.892985000000     0.455466666667     0.124859   
C40      C      0.781025000000     0.892985000000     0.788800000000     0.124859   
C41      C      0.146200000000     0.385815000000     0.250533333333     0.132815   
C41      C      0.146200000000     0.385815000000     0.583866666667     0.132815   
C41      C      0.146200000000     0.385815000000     0.917200000000     0.132815   
C41      C      0.146200000000     0.885815000000     0.250533333333     0.132815   
C41      C      0.146200000000     0.885815000000     0.583866666667     0.132815   
C41      C      0.146200000000     0.885815000000     0.917200000000     0.132815   
C41      C      0.396200000000     0.385815000000     0.250533333333     0.132815   
C41      C      0.396200000000     0.385815000000     0.583866666667     0.132815   
C41      C      0.396200000000     0.385815000000     0.917200000000     0.132815   
C41      C      0.396200000000     0.885815000000     0.250533333333     0.132815   
C41      C      0.396200000000     0.885815000000     0.583866666667     0.132815   
C41      C      0.396200000000     0.885815000000     0.917200000000     0.132815   
C41      C      0.646200000000     0.385815000000     0.250533333333     0.132815   
C41      C      0.646200000000     0.385815000000     0.583866666667     0.132815   
C41      C      0.646200000000     0.385815000000     0.917200000000     0.132815   
C41      C      0.646200000000     0.885815000000     0.250533333333     0.132815   
C41      C      0.646200000000     0.885815000000     0.583866666667     0.132815   
C41      C      0.646200000000     0.885815000000     0.917200000000     0.132815   
C41      C      0.896200000000     0.385815000000     0.250533333333     0.132815   
C41      C      0.896200000000     0.385815000000     0.583866666667     0.132815   
C41      C      0.896200000000     0.385815000000     0.917200000000     0.132815   
C41      C      0.896200000000     0.885815000000     0.250533333333     0.132815   
C41      C      0.896200000000     0.885815000000     0.583866666667     0.132815   
C41      C      0.896200000000     0.885815000000     0.917200000000     0.132815   
C42      C      0.007050000000     0.416875000000     0.083800000000     0.102005   
C42      C      0.007050000000     0.416875000000     0.417133333333     0.102005   
C42      C      0.007050000000     0.416875000000     0.750466666667     0.102005   
C42      C      0.007050000000     0.916875000000     0.083800000000     0.102005   
C42      C      0.007050000000     0.916875000000     0.417133333333     0.102005   
C42      C      0.007050000000     0.916875000000     0.750466666667     0.102005   
C42      C      0.257050000000     0.416875000000     0.083800000000     0.102005   
C42      C      0.257050000000     0.416875000000     0.417133333333     0.102005   
C42      C      0.257050000000     0.416875000000     0.750466666667     0.102005   
C42      C      0.257050000000     0.916875000000     0.083800000000     0.102005   
C42      C      0.257050000000     0.916875000000     0.417133333333     0.102005   
C42      C      0.257050000000     0.916875000000     0.750466666667     0.102005   
C42      C      0.507050000000     0.416875000000     0.083800000000     0.102005   
C42      C      0.507050000000     0.416875000000     0.417133333333     0.102005   
C42      C      0.507050000000     0.416875000000     0.750466666667     0.102005   
C42      C      0.507050000000     0.916875000000     0.083800000000     0.102005   
C42      C      0.507050000000     0.916875000000     0.417133333333     0.102005   
C42      C      0.507050000000     0.916875000000     0.750466666667     0.102005   
C42      C      0.757050000000     0.416875000000     0.083800000000     0.102005   
C42      C      0.757050000000     0.416875000000     0.417133333333     0.102005   
C42      C      0.757050000000     0.416875000000     0.750466666667     0.102005   
C42      C      0.757050000000     0.916875000000     0.083800000000     0.102005   
C42      C      0.757050000000     0.916875000000     0.417133333333     0.102005   
C42      C      0.757050000000     0.916875000000     0.750466666667     0.102005   
C43      C      0.040700000000     0.292410000000     0.156233333333     0.127776   
C43      C      0.040700000000     0.292410000000     0.489566666667     0.127776   
C43      C      0.040700000000     0.292410000000     0.822900000000     0.127776   
C43      C      0.040700000000     0.792410000000     0.156233333333     0.127776   
C43      C      0.040700000000     0.792410000000     0.489566666667     0.127776   
C43      C      0.040700000000     0.792410000000     0.822900000000     0.127776   
C43      C      0.290700000000     0.292410000000     0.156233333333     0.127776   
C43      C      0.290700000000     0.292410000000     0.489566666667     0.127776   
C43      C      0.290700000000     0.292410000000     0.822900000000     0.127776   
C43      C      0.290700000000     0.792410000000     0.156233333333     0.127776   
C43      C      0.290700000000     0.792410000000     0.489566666667     0.127776   
C43      C      0.290700000000     0.792410000000     0.822900000000     0.127776   
C43      C      0.540700000000     0.292410000000     0.156233333333     0.127776   
C43      C      0.540700000000     0.292410000000     0.489566666667     0.127776   
C43      C      0.540700000000     0.292410000000     0.822900000000     0.127776   
C43      C      0.540700000000     0.792410000000     0.156233333333     0.127776   
C43      C      0.540700000000     0.792410000000     0.489566666667     0.127776   
C43      C      0.540700000000     0.792410000000     0.822900000000     0.127776   
C43      C      0.790700000000     0.292410000000     0.156233333333     0.127776   
C43      C      0.790700000000     0.292410000000     0.489566666667     0.127776   
C43      C      0.790700000000     0.292410000000     0.822900000000     0.127776   
C43      C      0.790700000000     0.792410000000     0.156233333333     0.127776   
C43      C      0.790700000000     0.792410000000     0.489566666667     0.127776   
C43      C      0.790700000000     0.792410000000     0.822900000000     0.127776   
C44      C      0.076575000000     0.153060000000     0.214500000000     0.13467    
C44      C      0.076575000000     0.153060000000     0.547833333333     0.13467    
C44      C      0.076575000000     0.153060000000     0.881166666667     0.13467    
C44      C      0.076575000000     0.653060000000     0.214500000000     0.13467    
C44      C      0.076575000000     0.653060000000     0.547833333333     0.13467    
C44      C      0.076575000000     0.653060000000     0.881166666667     0.13467    
C44      C      0.326575000000     0.153060000000     0.214500000000     0.13467    
C44      C      0.326575000000     0.153060000000     0.547833333333     0.13467    
C44      C      0.326575000000     0.153060000000     0.881166666667     0.13467    
C44      C      0.326575000000     0.653060000000     0.214500000000     0.13467    
C44      C      0.326575000000     0.653060000000     0.547833333333     0.13467    
C44      C      0.326575000000     0.653060000000     0.881166666667     0.13467    
C44      C      0.576575000000     0.153060000000     0.214500000000     0.13467    
C44      C      0.576575000000     0.153060000000     0.547833333333     0.13467    
C44      C      0.576575000000     0.153060000000     0.881166666667     0.13467    
C44      C      0.576575000000     0.653060000000     0.214500000000     0.13467    
C44      C      0.576575000000     0.653060000000     0.547833333333     0.13467    
C44      C      0.576575000000     0.653060000000     0.881166666667     0.13467    
C44      C      0.826575000000     0.153060000000     0.214500000000     0.13467    
C44      C      0.826575000000     0.153060000000     0.547833333333     0.13467    
C44      C      0.826575000000     0.153060000000     0.881166666667     0.13467    
C44      C      0.826575000000     0.653060000000     0.214500000000     0.13467    
C44      C      0.826575000000     0.653060000000     0.547833333333     0.13467    
C44      C      0.826575000000     0.653060000000     0.881166666667     0.13467    
C45      C      0.076325000000     0.348520000000     0.191633333333     0.13467    
C45      C      0.076325000000     0.348520000000     0.524966666667     0.13467    
C45      C      0.076325000000     0.348520000000     0.858300000000     0.13467    
C45      C      0.076325000000     0.848520000000     0.191633333333     0.13467    
C45      C      0.076325000000     0.848520000000     0.524966666667     0.13467    
C45      C      0.076325000000     0.848520000000     0.858300000000     0.13467    
C45      C      0.326325000000     0.348520000000     0.191633333333     0.13467    
C45      C      0.326325000000     0.348520000000     0.524966666667     0.13467    
C45      C      0.326325000000     0.348520000000     0.858300000000     0.13467    
C45      C      0.326325000000     0.848520000000     0.191633333333     0.13467    
C45      C      0.326325000000     0.848520000000     0.524966666667     0.13467    
C45      C      0.326325000000     0.848520000000     0.858300000000     0.13467    
C45      C      0.576325000000     0.348520000000     0.191633333333     0.13467    
C45      C      0.576325000000     0.348520000000     0.524966666667     0.13467    
C45      C      0.576325000000     0.348520000000     0.858300000000     0.13467    
C45      C      0.576325000000     0.848520000000     0.191633333333     0.13467    
C45      C      0.576325000000     0.848520000000     0.524966666667     0.13467    
C45      C      0.576325000000     0.848520000000     0.858300000000     0.13467    
C45      C      0.826325000000     0.348520000000     0.191633333333     0.13467    
C45      C      0.826325000000     0.348520000000     0.524966666667     0.13467    
C45      C      0.826325000000     0.348520000000     0.858300000000     0.13467    
C45      C      0.826325000000     0.848520000000     0.191633333333     0.13467    
C45      C      0.826325000000     0.848520000000     0.524966666667     0.13467    
C45      C      0.826325000000     0.848520000000     0.858300000000     0.13467    
C46      C      0.103800000000     0.135815000000     0.249466666667     0.100352   
C46      C      0.103800000000     0.135815000000     0.582800000000     0.100352   
C46      C      0.103800000000     0.135815000000     0.916133333333     0.100352   
C46      C      0.103800000000     0.635815000000     0.249466666667     0.100352   
C46      C      0.103800000000     0.635815000000     0.582800000000     0.100352   
C46      C      0.103800000000     0.635815000000     0.916133333333     0.100352   
C46      C      0.353800000000     0.135815000000     0.249466666667     0.100352   
C46      C      0.353800000000     0.135815000000     0.582800000000     0.100352   
C46      C      0.353800000000     0.135815000000     0.916133333333     0.100352   
C46      C      0.353800000000     0.635815000000     0.249466666667     0.100352   
C46      C      0.353800000000     0.635815000000     0.582800000000     0.100352   
C46      C      0.353800000000     0.635815000000     0.916133333333     0.100352   
C46      C      0.603800000000     0.135815000000     0.249466666667     0.100352   
C46      C      0.603800000000     0.135815000000     0.582800000000     0.100352   
C46      C      0.603800000000     0.135815000000     0.916133333333     0.100352   
C46      C      0.603800000000     0.635815000000     0.249466666667     0.100352   
C46      C      0.603800000000     0.635815000000     0.582800000000     0.100352   
C46      C      0.603800000000     0.635815000000     0.916133333333     0.100352   
C46      C      0.853800000000     0.135815000000     0.249466666667     0.100352   
C46      C      0.853800000000     0.135815000000     0.582800000000     0.100352   
C46      C      0.853800000000     0.135815000000     0.916133333333     0.100352   
C46      C      0.853800000000     0.635815000000     0.249466666667     0.100352   
C46      C      0.853800000000     0.635815000000     0.582800000000     0.100352   
C46      C      0.853800000000     0.635815000000     0.916133333333     0.100352   
C47      C      0.173425000000     0.403060000000     0.285500000000     0.102005   
C47      C      0.173425000000     0.403060000000     0.618833333333     0.102005   
C47      C      0.173425000000     0.403060000000     0.952166666667     0.102005   
C47      C      0.173425000000     0.903060000000     0.285500000000     0.102005   
C47      C      0.173425000000     0.903060000000     0.618833333333     0.102005   
C47      C      0.173425000000     0.903060000000     0.952166666667     0.102005   
C47      C      0.423425000000     0.403060000000     0.285500000000     0.102005   
C47      C      0.423425000000     0.403060000000     0.618833333333     0.102005   
C47      C      0.423425000000     0.403060000000     0.952166666667     0.102005   
C47      C      0.423425000000     0.903060000000     0.285500000000     0.102005   
C47      C      0.423425000000     0.903060000000     0.618833333333     0.102005   
C47      C      0.423425000000     0.903060000000     0.952166666667     0.102005   
C47      C      0.673425000000     0.403060000000     0.285500000000     0.102005   
C47      C      0.673425000000     0.403060000000     0.618833333333     0.102005   
C47      C      0.673425000000     0.403060000000     0.952166666667     0.102005   
C47      C      0.673425000000     0.903060000000     0.285500000000     0.102005   
C47      C      0.673425000000     0.903060000000     0.618833333333     0.102005   
C47      C      0.673425000000     0.903060000000     0.952166666667     0.102005   
C47      C      0.923425000000     0.403060000000     0.285500000000     0.102005   
C47      C      0.923425000000     0.403060000000     0.618833333333     0.102005   
C47      C      0.923425000000     0.403060000000     0.952166666667     0.102005   
C47      C      0.923425000000     0.903060000000     0.285500000000     0.102005   
C47      C      0.923425000000     0.903060000000     0.618833333333     0.102005   
C47      C      0.923425000000     0.903060000000     0.952166666667     0.102005   
C48      C      0.025000000000     0.355365000000     0.122033333333     0.132815   
C48      C      0.025000000000     0.355365000000     0.455366666667     0.132815   
C48      C      0.025000000000     0.355365000000     0.788700000000     0.132815   
C48      C      0.025000000000     0.855365000000     0.122033333333     0.132815   
C48      C      0.025000000000     0.855365000000     0.455366666667     0.132815   
C48      C      0.025000000000     0.855365000000     0.788700000000     0.132815   
C48      C      0.275000000000     0.355365000000     0.122033333333     0.132815   
C48      C      0.275000000000     0.355365000000     0.455366666667     0.132815   
C48      C      0.275000000000     0.355365000000     0.788700000000     0.132815   
C48      C      0.275000000000     0.855365000000     0.122033333333     0.132815   
C48      C      0.275000000000     0.855365000000     0.455366666667     0.132815   
C48      C      0.275000000000     0.855365000000     0.788700000000     0.132815   
C48      C      0.525000000000     0.355365000000     0.122033333333     0.132815   
C48      C      0.525000000000     0.355365000000     0.455366666667     0.132815   
C48      C      0.525000000000     0.355365000000     0.788700000000     0.132815   
C48      C      0.525000000000     0.855365000000     0.122033333333     0.132815   
C48      C      0.525000000000     0.855365000000     0.455366666667     0.132815   
C48      C      0.525000000000     0.855365000000     0.788700000000     0.132815   
C48      C      0.775000000000     0.355365000000     0.122033333333     0.132815   
C48      C      0.775000000000     0.355365000000     0.455366666667     0.132815   
C48      C      0.775000000000     0.355365000000     0.788700000000     0.132815   
C48      C      0.775000000000     0.855365000000     0.122033333333     0.132815   
C48      C      0.775000000000     0.855365000000     0.455366666667     0.132815   
C48      C      0.775000000000     0.855365000000     0.788700000000     0.132815   
C49      C      0.138325000000     0.153140000000     0.267766666667     0.100352   
C49      C      0.138325000000     0.153140000000     0.601100000000     0.100352   
C49      C      0.138325000000     0.153140000000     0.934433333333     0.100352   
C49      C      0.138325000000     0.653140000000     0.267766666667     0.100352   
C49      C      0.138325000000     0.653140000000     0.601100000000     0.100352   
C49      C      0.138325000000     0.653140000000     0.934433333333     0.100352   
C49      C      0.388325000000     0.153140000000     0.267766666667     0.100352   
C49      C      0.388325000000     0.153140000000     0.601100000000     0.100352   
C49      C      0.388325000000     0.153140000000     0.934433333333     0.100352   
C49      C      0.388325000000     0.653140000000     0.267766666667     0.100352   
C49      C      0.388325000000     0.653140000000     0.601100000000     0.100352   
C49      C      0.388325000000     0.653140000000     0.934433333333     0.100352   
C49      C      0.638325000000     0.153140000000     0.267766666667     0.100352   
C49      C      0.638325000000     0.153140000000     0.601100000000     0.100352   
C49      C      0.638325000000     0.153140000000     0.934433333333     0.100352   
C49      C      0.638325000000     0.653140000000     0.267766666667     0.100352   
C49      C      0.638325000000     0.653140000000     0.601100000000     0.100352   
C49      C      0.638325000000     0.653140000000     0.934433333333     0.100352   
C49      C      0.888325000000     0.153140000000     0.267766666667     0.100352   
C49      C      0.888325000000     0.153140000000     0.601100000000     0.100352   
C49      C      0.888325000000     0.153140000000     0.934433333333     0.100352   
C49      C      0.888325000000     0.653140000000     0.267766666667     0.100352   
C49      C      0.888325000000     0.653140000000     0.601100000000     0.100352   
C49      C      0.888325000000     0.653140000000     0.934433333333     0.100352   
C50      C      0.143500000000     0.187000000000     0.248600000000     0.126168   
C50      C      0.143500000000     0.187000000000     0.581933333333     0.126168   
C50      C      0.143500000000     0.187000000000     0.915266666667     0.126168   
C50      C      0.143500000000     0.687000000000     0.248600000000     0.126168   
C50      C      0.143500000000     0.687000000000     0.581933333333     0.126168   
C50      C      0.143500000000     0.687000000000     0.915266666667     0.126168   
C50      C      0.393500000000     0.187000000000     0.248600000000     0.126168   
C50      C      0.393500000000     0.187000000000     0.581933333333     0.126168   
C50      C      0.393500000000     0.187000000000     0.915266666667     0.126168   
C50      C      0.393500000000     0.687000000000     0.248600000000     0.126168   
C50      C      0.393500000000     0.687000000000     0.581933333333     0.126168   
C50      C      0.393500000000     0.687000000000     0.915266666667     0.126168   
C50      C      0.643500000000     0.187000000000     0.248600000000     0.126168   
C50      C      0.643500000000     0.187000000000     0.581933333333     0.126168   
C50      C      0.643500000000     0.187000000000     0.915266666667     0.126168   
C50      C      0.643500000000     0.687000000000     0.248600000000     0.126168   
C50      C      0.643500000000     0.687000000000     0.581933333333     0.126168   
C50      C      0.643500000000     0.687000000000     0.915266666667     0.126168   
C50      C      0.893500000000     0.187000000000     0.248600000000     0.126168   
C50      C      0.893500000000     0.187000000000     0.581933333333     0.126168   
C50      C      0.893500000000     0.187000000000     0.915266666667     0.126168   
C50      C      0.893500000000     0.687000000000     0.248600000000     0.126168   
C50      C      0.893500000000     0.687000000000     0.581933333333     0.126168   
C50      C      0.893500000000     0.687000000000     0.915266666667     0.126168   
C51      C      0.082050000000     0.386510000000     0.193500000000     0.100352   
C51      C      0.082050000000     0.386510000000     0.526833333333     0.100352   
C51      C      0.082050000000     0.386510000000     0.860166666667     0.100352   
C51      C      0.082050000000     0.886510000000     0.193500000000     0.100352   
C51      C      0.082050000000     0.886510000000     0.526833333333     0.100352   
C51      C      0.082050000000     0.886510000000     0.860166666667     0.100352   
C51      C      0.332050000000     0.386510000000     0.193500000000     0.100352   
C51      C      0.332050000000     0.386510000000     0.526833333333     0.100352   
C51      C      0.332050000000     0.386510000000     0.860166666667     0.100352   
C51      C      0.332050000000     0.886510000000     0.193500000000     0.100352   
C51      C      0.332050000000     0.886510000000     0.526833333333     0.100352   
C51      C      0.332050000000     0.886510000000     0.860166666667     0.100352   
C51      C      0.582050000000     0.386510000000     0.193500000000     0.100352   
C51      C      0.582050000000     0.386510000000     0.526833333333     0.100352   
C51      C      0.582050000000     0.386510000000     0.860166666667     0.100352   
C51      C      0.582050000000     0.886510000000     0.193500000000     0.100352   
C51      C      0.582050000000     0.886510000000     0.526833333333     0.100352   
C51      C      0.582050000000     0.886510000000     0.860166666667     0.100352   
C51      C      0.832050000000     0.386510000000     0.193500000000     0.100352   
C51      C      0.832050000000     0.386510000000     0.526833333333     0.100352   
C51      C      0.832050000000     0.386510000000     0.860166666667     0.100352   
C51      C      0.832050000000     0.886510000000     0.193500000000     0.100352   
C51      C      0.832050000000     0.886510000000     0.526833333333     0.100352   
C51      C      0.832050000000     0.886510000000     0.860166666667     0.100352   
C52      C      0.106500000000     0.437000000000     0.251400000000     0.124859   
C52      C      0.106500000000     0.437000000000     0.584733333333     0.124859   
C52      C      0.106500000000     0.437000000000     0.918066666667     0.124859   
C52      C      0.106500000000     0.937000000000     0.251400000000     0.124859   
C52      C      0.106500000000     0.937000000000     0.584733333333     0.124859   
C52      C      0.106500000000     0.937000000000     0.918066666667     0.124859   
C52      C      0.356500000000     0.437000000000     0.251400000000     0.124859   
C52      C      0.356500000000     0.437000000000     0.584733333333     0.124859   
C52      C      0.356500000000     0.437000000000     0.918066666667     0.124859   
C52      C      0.356500000000     0.937000000000     0.251400000000     0.124859   
C52      C      0.356500000000     0.937000000000     0.584733333333     0.124859   
C52      C      0.356500000000     0.937000000000     0.918066666667     0.124859   
C52      C      0.606500000000     0.437000000000     0.251400000000     0.124859   
C52      C      0.606500000000     0.437000000000     0.584733333333     0.124859   
C52      C      0.606500000000     0.437000000000     0.918066666667     0.124859   
C52      C      0.606500000000     0.937000000000     0.251400000000     0.124859   
C52      C      0.606500000000     0.937000000000     0.584733333333     0.124859   
C52      C      0.606500000000     0.937000000000     0.918066666667     0.124859   
C52      C      0.856500000000     0.437000000000     0.251400000000     0.124859   
C52      C      0.856500000000     0.437000000000     0.584733333333     0.124859   
C52      C      0.856500000000     0.437000000000     0.918066666667     0.124859   
C52      C      0.856500000000     0.937000000000     0.251400000000     0.124859   
C52      C      0.856500000000     0.937000000000     0.584733333333     0.124859   
C52      C      0.856500000000     0.937000000000     0.918066666667     0.124859   
Cd1      Cd     0.216700000000     0.466950000000     0.020560000000     0.124859   
Cd1      Cd     0.216700000000     0.466950000000     0.353893333333     0.124859   
Cd1      Cd     0.216700000000     0.466950000000     0.687226666667     0.124859   
Cd1      Cd     0.216700000000     0.966950000000     0.020560000000     0.124859   
Cd1      Cd     0.216700000000     0.966950000000     0.353893333333     0.124859   
Cd1      Cd     0.216700000000     0.966950000000     0.687226666667     0.124859   
Cd1      Cd     0.466700000000     0.466950000000     0.020560000000     0.124859   
Cd1      Cd     0.466700000000     0.466950000000     0.353893333333     0.124859   
Cd1      Cd     0.466700000000     0.466950000000     0.687226666667     0.124859   
Cd1      Cd     0.466700000000     0.966950000000     0.020560000000     0.124859   
Cd1      Cd     0.466700000000     0.966950000000     0.353893333333     0.124859   
Cd1      Cd     0.466700000000     0.966950000000     0.687226666667     0.124859   
Cd1      Cd     0.716700000000     0.466950000000     0.020560000000     0.124859   
Cd1      Cd     0.716700000000     0.466950000000     0.353893333333     0.124859   
Cd1      Cd     0.716700000000     0.466950000000     0.687226666667     0.124859   
Cd1      Cd     0.716700000000     0.966950000000     0.020560000000     0.124859   
Cd1      Cd     0.716700000000     0.966950000000     0.353893333333     0.124859   
Cd1      Cd     0.716700000000     0.966950000000     0.687226666667     0.124859   
Cd1      Cd     0.966700000000     0.466950000000     0.020560000000     0.124859   
Cd1      Cd     0.966700000000     0.466950000000     0.353893333333     0.124859   
Cd1      Cd     0.966700000000     0.466950000000     0.687226666667     0.124859   
Cd1      Cd     0.966700000000     0.966950000000     0.020560000000     0.124859   
Cd1      Cd     0.966700000000     0.966950000000     0.353893333333     0.124859   
Cd1      Cd     0.966700000000     0.966950000000     0.687226666667     0.124859   
Cd2      Cd     0.033300000000     0.216950000000     0.146106666667     0.13467    
Cd2      Cd     0.033300000000     0.216950000000     0.479440000000     0.13467    
Cd2      Cd     0.033300000000     0.216950000000     0.812773333333     0.13467    
Cd2      Cd     0.033300000000     0.716950000000     0.146106666667     0.13467    
Cd2      Cd     0.033300000000     0.716950000000     0.479440000000     0.13467    
Cd2      Cd     0.033300000000     0.716950000000     0.812773333333     0.13467    
Cd2      Cd     0.283300000000     0.216950000000     0.146106666667     0.13467    
Cd2      Cd     0.283300000000     0.216950000000     0.479440000000     0.13467    
Cd2      Cd     0.283300000000     0.216950000000     0.812773333333     0.13467    
Cd2      Cd     0.283300000000     0.716950000000     0.146106666667     0.13467    
Cd2      Cd     0.283300000000     0.716950000000     0.479440000000     0.13467    
Cd2      Cd     0.283300000000     0.716950000000     0.812773333333     0.13467    
Cd2      Cd     0.533300000000     0.216950000000     0.146106666667     0.13467    
Cd2      Cd     0.533300000000     0.216950000000     0.479440000000     0.13467    
Cd2      Cd     0.533300000000     0.216950000000     0.812773333333     0.13467    
Cd2      Cd     0.533300000000     0.716950000000     0.146106666667     0.13467    
Cd2      Cd     0.533300000000     0.716950000000     0.479440000000     0.13467    
Cd2      Cd     0.533300000000     0.716950000000     0.812773333333     0.13467    
Cd2      Cd     0.783300000000     0.216950000000     0.146106666667     0.13467    
Cd2      Cd     0.783300000000     0.216950000000     0.479440000000     0.13467    
Cd2      Cd     0.783300000000     0.216950000000     0.812773333333     0.13467    
Cd2      Cd     0.783300000000     0.716950000000     0.146106666667     0.13467    
Cd2      Cd     0.783300000000     0.716950000000     0.479440000000     0.13467    
Cd2      Cd     0.783300000000     0.716950000000     0.812773333333     0.13467    
Cd3      Cd     0.033300000000     0.033050000000     0.312773333333     0.102006   
Cd3      Cd     0.033300000000     0.033050000000     0.646106666667     0.102006   
Cd3      Cd     0.033300000000     0.033050000000     0.979440000000     0.102006   
Cd3      Cd     0.033300000000     0.533050000000     0.312773333333     0.102006   
Cd3      Cd     0.033300000000     0.533050000000     0.646106666667     0.102006   
Cd3      Cd     0.033300000000     0.533050000000     0.979440000000     0.102006   
Cd3      Cd     0.283300000000     0.033050000000     0.312773333333     0.102006   
Cd3      Cd     0.283300000000     0.033050000000     0.646106666667     0.102006   
Cd3      Cd     0.283300000000     0.033050000000     0.979440000000     0.102006   
Cd3      Cd     0.283300000000     0.533050000000     0.312773333333     0.102006   
Cd3      Cd     0.283300000000     0.533050000000     0.646106666667     0.102006   
Cd3      Cd     0.283300000000     0.533050000000     0.979440000000     0.102006   
Cd3      Cd     0.533300000000     0.033050000000     0.312773333333     0.102006   
Cd3      Cd     0.533300000000     0.033050000000     0.646106666667     0.102006   
Cd3      Cd     0.533300000000     0.033050000000     0.979440000000     0.102006   
Cd3      Cd     0.533300000000     0.533050000000     0.312773333333     0.102006   
Cd3      Cd     0.533300000000     0.533050000000     0.646106666667     0.102006   
Cd3      Cd     0.533300000000     0.533050000000     0.979440000000     0.102006   
Cd3      Cd     0.783300000000     0.033050000000     0.312773333333     0.102006   
Cd3      Cd     0.783300000000     0.033050000000     0.646106666667     0.102006   
Cd3      Cd     0.783300000000     0.033050000000     0.979440000000     0.102006   
Cd3      Cd     0.783300000000     0.533050000000     0.312773333333     0.102006   
Cd3      Cd     0.783300000000     0.533050000000     0.646106666667     0.102006   
Cd3      Cd     0.783300000000     0.533050000000     0.979440000000     0.102006   
Cd4      Cd     0.216700000000     0.283050000000     0.187226666667     0.126168   
Cd4      Cd     0.216700000000     0.283050000000     0.520560000000     0.126168   
Cd4      Cd     0.216700000000     0.283050000000     0.853893333333     0.126168   
Cd4      Cd     0.216700000000     0.783050000000     0.187226666667     0.126168   
Cd4      Cd     0.216700000000     0.783050000000     0.520560000000     0.126168   
Cd4      Cd     0.216700000000     0.783050000000     0.853893333333     0.126168   
Cd4      Cd     0.466700000000     0.283050000000     0.187226666667     0.126168   
Cd4      Cd     0.466700000000     0.283050000000     0.520560000000     0.126168   
Cd4      Cd     0.466700000000     0.283050000000     0.853893333333     0.126168   
Cd4      Cd     0.466700000000     0.783050000000     0.187226666667     0.126168   
Cd4      Cd     0.466700000000     0.783050000000     0.520560000000     0.126168   
Cd4      Cd     0.466700000000     0.783050000000     0.853893333333     0.126168   
Cd4      Cd     0.716700000000     0.283050000000     0.187226666667     0.126168   
Cd4      Cd     0.716700000000     0.283050000000     0.520560000000     0.126168   
Cd4      Cd     0.716700000000     0.283050000000     0.853893333333     0.126168   
Cd4      Cd     0.716700000000     0.783050000000     0.187226666667     0.126168   
Cd4      Cd     0.716700000000     0.783050000000     0.520560000000     0.126168   
Cd4      Cd     0.716700000000     0.783050000000     0.853893333333     0.126168   
Cd4      Cd     0.966700000000     0.283050000000     0.187226666667     0.126168   
Cd4      Cd     0.966700000000     0.283050000000     0.520560000000     0.126168   
Cd4      Cd     0.966700000000     0.283050000000     0.853893333333     0.126168   
Cd4      Cd     0.966700000000     0.783050000000     0.187226666667     0.126168   
Cd4      Cd     0.966700000000     0.783050000000     0.520560000000     0.126168   
Cd4      Cd     0.966700000000     0.783050000000     0.853893333333     0.126168   
H1       H      0.091950000000     0.416550000000     0.047366666667     0.127776   
H1       H      0.091950000000     0.416550000000     0.380700000000     0.127776   
H1       H      0.091950000000     0.416550000000     0.714033333333     0.127776   
H1       H      0.091950000000     0.916550000000     0.047366666667     0.127776   
H1       H      0.091950000000     0.916550000000     0.380700000000     0.127776   
H1       H      0.091950000000     0.916550000000     0.714033333333     0.127776   
H1       H      0.341950000000     0.416550000000     0.047366666667     0.127776   
H1       H      0.341950000000     0.416550000000     0.380700000000     0.127776   
H1       H      0.341950000000     0.416550000000     0.714033333333     0.127776   
H1       H      0.341950000000     0.916550000000     0.047366666667     0.127776   
H1       H      0.341950000000     0.916550000000     0.380700000000     0.127776   
H1       H      0.341950000000     0.916550000000     0.714033333333     0.127776   
H1       H      0.591950000000     0.416550000000     0.047366666667     0.127776   
H1       H      0.591950000000     0.416550000000     0.380700000000     0.127776   
H1       H      0.591950000000     0.416550000000     0.714033333333     0.127776   
H1       H      0.591950000000     0.916550000000     0.047366666667     0.127776   
H1       H      0.591950000000     0.916550000000     0.380700000000     0.127776   
H1       H      0.591950000000     0.916550000000     0.714033333333     0.127776   
H1       H      0.841950000000     0.416550000000     0.047366666667     0.127776   
H1       H      0.841950000000     0.416550000000     0.380700000000     0.127776   
H1       H      0.841950000000     0.416550000000     0.714033333333     0.127776   
H1       H      0.841950000000     0.916550000000     0.047366666667     0.127776   
H1       H      0.841950000000     0.916550000000     0.380700000000     0.127776   
H1       H      0.841950000000     0.916550000000     0.714033333333     0.127776   
H2       H      0.083700000000     0.449200000000     0.240866666667     0.127776   
H2       H      0.083700000000     0.449200000000     0.574200000000     0.127776   
H2       H      0.083700000000     0.449200000000     0.907533333333     0.127776   
H2       H      0.083700000000     0.949200000000     0.240866666667     0.127776   
H2       H      0.083700000000     0.949200000000     0.574200000000     0.127776   
H2       H      0.083700000000     0.949200000000     0.907533333333     0.127776   
H2       H      0.333700000000     0.449200000000     0.240866666667     0.127776   
H2       H      0.333700000000     0.449200000000     0.574200000000     0.127776   
H2       H      0.333700000000     0.449200000000     0.907533333333     0.127776   
H2       H      0.333700000000     0.949200000000     0.240866666667     0.127776   
H2       H      0.333700000000     0.949200000000     0.574200000000     0.127776   
H2       H      0.333700000000     0.949200000000     0.907533333333     0.127776   
H2       H      0.583700000000     0.449200000000     0.240866666667     0.127776   
H2       H      0.583700000000     0.449200000000     0.574200000000     0.127776   
H2       H      0.583700000000     0.449200000000     0.907533333333     0.127776   
H2       H      0.583700000000     0.949200000000     0.240866666667     0.127776   
H2       H      0.583700000000     0.949200000000     0.574200000000     0.127776   
H2       H      0.583700000000     0.949200000000     0.907533333333     0.127776   
H2       H      0.833700000000     0.449200000000     0.240866666667     0.127776   
H2       H      0.833700000000     0.449200000000     0.574200000000     0.127776   
H2       H      0.833700000000     0.449200000000     0.907533333333     0.127776   
H2       H      0.833700000000     0.949200000000     0.240866666667     0.127776   
H2       H      0.833700000000     0.949200000000     0.574200000000     0.127776   
H2       H      0.833700000000     0.949200000000     0.907533333333     0.127776   
H3       H      0.196150000000     0.358950000000     0.130866666667     0.12486    
H3       H      0.196150000000     0.358950000000     0.464200000000     0.12486    
H3       H      0.196150000000     0.358950000000     0.797533333333     0.12486    
H3       H      0.196150000000     0.858950000000     0.130866666667     0.12486    
H3       H      0.196150000000     0.858950000000     0.464200000000     0.12486    
H3       H      0.196150000000     0.858950000000     0.797533333333     0.12486    
H3       H      0.446150000000     0.358950000000     0.130866666667     0.12486    
H3       H      0.446150000000     0.358950000000     0.464200000000     0.12486    
H3       H      0.446150000000     0.358950000000     0.797533333333     0.12486    
H3       H      0.446150000000     0.858950000000     0.130866666667     0.12486    
H3       H      0.446150000000     0.858950000000     0.464200000000     0.12486    
H3       H      0.446150000000     0.858950000000     0.797533333333     0.12486    
H3       H      0.696150000000     0.358950000000     0.130866666667     0.12486    
H3       H      0.696150000000     0.358950000000     0.464200000000     0.12486    
H3       H      0.696150000000     0.358950000000     0.797533333333     0.12486    
H3       H      0.696150000000     0.858950000000     0.130866666667     0.12486    
H3       H      0.696150000000     0.858950000000     0.464200000000     0.12486    
H3       H      0.696150000000     0.858950000000     0.797533333333     0.12486    
H3       H      0.946150000000     0.358950000000     0.130866666667     0.12486    
H3       H      0.946150000000     0.358950000000     0.464200000000     0.12486    
H3       H      0.946150000000     0.358950000000     0.797533333333     0.12486    
H3       H      0.946150000000     0.858950000000     0.130866666667     0.12486    
H3       H      0.946150000000     0.858950000000     0.464200000000     0.12486    
H3       H      0.946150000000     0.858950000000     0.797533333333     0.12486    
H4       H      0.187300000000     0.066250000000     0.174000000000     0.126168   
H4       H      0.187300000000     0.066250000000     0.507333333333     0.126168   
H4       H      0.187300000000     0.066250000000     0.840666666667     0.126168   
H4       H      0.187300000000     0.566250000000     0.174000000000     0.126168   
H4       H      0.187300000000     0.566250000000     0.507333333333     0.126168   
H4       H      0.187300000000     0.566250000000     0.840666666667     0.126168   
H4       H      0.437300000000     0.066250000000     0.174000000000     0.126168   
H4       H      0.437300000000     0.066250000000     0.507333333333     0.126168   
H4       H      0.437300000000     0.066250000000     0.840666666667     0.126168   
H4       H      0.437300000000     0.566250000000     0.174000000000     0.126168   
H4       H      0.437300000000     0.566250000000     0.507333333333     0.126168   
H4       H      0.437300000000     0.566250000000     0.840666666667     0.126168   
H4       H      0.687300000000     0.066250000000     0.174000000000     0.126168   
H4       H      0.687300000000     0.066250000000     0.507333333333     0.126168   
H4       H      0.687300000000     0.066250000000     0.840666666667     0.126168   
H4       H      0.687300000000     0.566250000000     0.174000000000     0.126168   
H4       H      0.687300000000     0.566250000000     0.507333333333     0.126168   
H4       H      0.687300000000     0.566250000000     0.840666666667     0.126168   
H4       H      0.937300000000     0.066250000000     0.174000000000     0.126168   
H4       H      0.937300000000     0.066250000000     0.507333333333     0.126168   
H4       H      0.937300000000     0.066250000000     0.840666666667     0.126168   
H4       H      0.937300000000     0.566250000000     0.174000000000     0.126168   
H4       H      0.937300000000     0.566250000000     0.507333333333     0.126168   
H4       H      0.937300000000     0.566250000000     0.840666666667     0.126168   
H5       H      0.150825000000     0.362850000000     0.239266666667     0.126168   
H5       H      0.150825000000     0.362850000000     0.572600000000     0.126168   
H5       H      0.150825000000     0.362850000000     0.905933333333     0.126168   
H5       H      0.150825000000     0.862850000000     0.239266666667     0.126168   
H5       H      0.150825000000     0.862850000000     0.572600000000     0.126168   
H5       H      0.150825000000     0.862850000000     0.905933333333     0.126168   
H5       H      0.400825000000     0.362850000000     0.239266666667     0.126168   
H5       H      0.400825000000     0.362850000000     0.572600000000     0.126168   
H5       H      0.400825000000     0.362850000000     0.905933333333     0.126168   
H5       H      0.400825000000     0.862850000000     0.239266666667     0.126168   
H5       H      0.400825000000     0.862850000000     0.572600000000     0.126168   
H5       H      0.400825000000     0.862850000000     0.905933333333     0.126168   
H5       H      0.650825000000     0.362850000000     0.239266666667     0.126168   
H5       H      0.650825000000     0.362850000000     0.572600000000     0.126168   
H5       H      0.650825000000     0.362850000000     0.905933333333     0.126168   
H5       H      0.650825000000     0.862850000000     0.239266666667     0.126168   
H5       H      0.650825000000     0.862850000000     0.572600000000     0.126168   
H5       H      0.650825000000     0.862850000000     0.905933333333     0.126168   
H5       H      0.900825000000     0.362850000000     0.239266666667     0.126168   
H5       H      0.900825000000     0.362850000000     0.572600000000     0.126168   
H5       H      0.900825000000     0.362850000000     0.905933333333     0.126168   
H5       H      0.900825000000     0.862850000000     0.239266666667     0.126168   
H5       H      0.900825000000     0.862850000000     0.572600000000     0.126168   
H5       H      0.900825000000     0.862850000000     0.905933333333     0.126168   
H6       H      0.150825000000     0.387150000000     0.072600000000     0.102006   
H6       H      0.150825000000     0.387150000000     0.405933333333     0.102006   
H6       H      0.150825000000     0.387150000000     0.739266666667     0.102006   
H6       H      0.150825000000     0.887150000000     0.072600000000     0.102006   
H6       H      0.150825000000     0.887150000000     0.405933333333     0.102006   
H6       H      0.150825000000     0.887150000000     0.739266666667     0.102006   
H6       H      0.400825000000     0.387150000000     0.072600000000     0.102006   
H6       H      0.400825000000     0.387150000000     0.405933333333     0.102006   
H6       H      0.400825000000     0.387150000000     0.739266666667     0.102006   
H6       H      0.400825000000     0.887150000000     0.072600000000     0.102006   
H6       H      0.400825000000     0.887150000000     0.405933333333     0.102006   
H6       H      0.400825000000     0.887150000000     0.739266666667     0.102006   
H6       H      0.650825000000     0.387150000000     0.072600000000     0.102006   
H6       H      0.650825000000     0.387150000000     0.405933333333     0.102006   
H6       H      0.650825000000     0.387150000000     0.739266666667     0.102006   
H6       H      0.650825000000     0.887150000000     0.072600000000     0.102006   
H6       H      0.650825000000     0.887150000000     0.405933333333     0.102006   
H6       H      0.650825000000     0.887150000000     0.739266666667     0.102006   
H6       H      0.900825000000     0.387150000000     0.072600000000     0.102006   
H6       H      0.900825000000     0.387150000000     0.405933333333     0.102006   
H6       H      0.900825000000     0.387150000000     0.739266666667     0.102006   
H6       H      0.900825000000     0.887150000000     0.072600000000     0.102006   
H6       H      0.900825000000     0.887150000000     0.405933333333     0.102006   
H6       H      0.900825000000     0.887150000000     0.739266666667     0.102006   
H7       H      0.130850000000     0.475500000000     0.298300000000     0.127776   
H7       H      0.130850000000     0.475500000000     0.631633333333     0.127776   
H7       H      0.130850000000     0.475500000000     0.964966666667     0.127776   
H7       H      0.130850000000     0.975500000000     0.298300000000     0.127776   
H7       H      0.130850000000     0.975500000000     0.631633333333     0.127776   
H7       H      0.130850000000     0.975500000000     0.964966666667     0.127776   
H7       H      0.380850000000     0.475500000000     0.298300000000     0.127776   
H7       H      0.380850000000     0.475500000000     0.631633333333     0.127776   
H7       H      0.380850000000     0.475500000000     0.964966666667     0.127776   
H7       H      0.380850000000     0.975500000000     0.298300000000     0.127776   
H7       H      0.380850000000     0.975500000000     0.631633333333     0.127776   
H7       H      0.380850000000     0.975500000000     0.964966666667     0.127776   
H7       H      0.630850000000     0.475500000000     0.298300000000     0.127776   
H7       H      0.630850000000     0.475500000000     0.631633333333     0.127776   
H7       H      0.630850000000     0.475500000000     0.964966666667     0.127776   
H7       H      0.630850000000     0.975500000000     0.298300000000     0.127776   
H7       H      0.630850000000     0.975500000000     0.631633333333     0.127776   
H7       H      0.630850000000     0.975500000000     0.964966666667     0.127776   
H7       H      0.880850000000     0.475500000000     0.298300000000     0.127776   
H7       H      0.880850000000     0.475500000000     0.631633333333     0.127776   
H7       H      0.880850000000     0.475500000000     0.964966666667     0.127776   
H7       H      0.880850000000     0.975500000000     0.298300000000     0.127776   
H7       H      0.880850000000     0.975500000000     0.631633333333     0.127776   
H7       H      0.880850000000     0.975500000000     0.964966666667     0.127776   
H8       H      0.196150000000     0.391050000000     0.297533333333     0.13467    
H8       H      0.196150000000     0.391050000000     0.630866666667     0.13467    
H8       H      0.196150000000     0.391050000000     0.964200000000     0.13467    
H8       H      0.196150000000     0.891050000000     0.297533333333     0.13467    
H8       H      0.196150000000     0.891050000000     0.630866666667     0.13467    
H8       H      0.196150000000     0.891050000000     0.964200000000     0.13467    
H8       H      0.446150000000     0.391050000000     0.297533333333     0.13467    
H8       H      0.446150000000     0.391050000000     0.630866666667     0.13467    
H8       H      0.446150000000     0.391050000000     0.964200000000     0.13467    
H8       H      0.446150000000     0.891050000000     0.297533333333     0.13467    
H8       H      0.446150000000     0.891050000000     0.630866666667     0.13467    
H8       H      0.446150000000     0.891050000000     0.964200000000     0.13467    
H8       H      0.696150000000     0.391050000000     0.297533333333     0.13467    
H8       H      0.696150000000     0.391050000000     0.630866666667     0.13467    
H8       H      0.696150000000     0.391050000000     0.964200000000     0.13467    
H8       H      0.696150000000     0.891050000000     0.297533333333     0.13467    
H8       H      0.696150000000     0.891050000000     0.630866666667     0.13467    
H8       H      0.696150000000     0.891050000000     0.964200000000     0.13467    
H8       H      0.946150000000     0.391050000000     0.297533333333     0.13467    
H8       H      0.946150000000     0.391050000000     0.630866666667     0.13467    
H8       H      0.946150000000     0.391050000000     0.964200000000     0.13467    
H8       H      0.946150000000     0.891050000000     0.297533333333     0.13467    
H8       H      0.946150000000     0.891050000000     0.630866666667     0.13467    
H8       H      0.946150000000     0.891050000000     0.964200000000     0.13467    
H9       H      0.083700000000     0.300800000000     0.074200000000     0.132815   
H9       H      0.083700000000     0.300800000000     0.407533333333     0.132815   
H9       H      0.083700000000     0.300800000000     0.740866666667     0.132815   
H9       H      0.083700000000     0.800800000000     0.074200000000     0.132815   
H9       H      0.083700000000     0.800800000000     0.407533333333     0.132815   
H9       H      0.083700000000     0.800800000000     0.740866666667     0.132815   
H9       H      0.333700000000     0.300800000000     0.074200000000     0.132815   
H9       H      0.333700000000     0.300800000000     0.407533333333     0.132815   
H9       H      0.333700000000     0.300800000000     0.740866666667     0.132815   
H9       H      0.333700000000     0.800800000000     0.074200000000     0.132815   
H9       H      0.333700000000     0.800800000000     0.407533333333     0.132815   
H9       H      0.333700000000     0.800800000000     0.740866666667     0.132815   
H9       H      0.583700000000     0.300800000000     0.074200000000     0.132815   
H9       H      0.583700000000     0.300800000000     0.407533333333     0.132815   
H9       H      0.583700000000     0.300800000000     0.740866666667     0.132815   
H9       H      0.583700000000     0.800800000000     0.074200000000     0.132815   
H9       H      0.583700000000     0.800800000000     0.407533333333     0.132815   
H9       H      0.583700000000     0.800800000000     0.740866666667     0.132815   
H9       H      0.833700000000     0.300800000000     0.074200000000     0.132815   
H9       H      0.833700000000     0.300800000000     0.407533333333     0.132815   
H9       H      0.833700000000     0.300800000000     0.740866666667     0.132815   
H9       H      0.833700000000     0.800800000000     0.074200000000     0.132815   
H9       H      0.833700000000     0.800800000000     0.407533333333     0.132815   
H9       H      0.833700000000     0.800800000000     0.740866666667     0.132815   
H10      H      0.130850000000     0.274500000000     0.131633333333     0.100351   
H10      H      0.130850000000     0.274500000000     0.464966666667     0.100351   
H10      H      0.130850000000     0.274500000000     0.798300000000     0.100351   
H10      H      0.130850000000     0.774500000000     0.131633333333     0.100351   
H10      H      0.130850000000     0.774500000000     0.464966666667     0.100351   
H10      H      0.130850000000     0.774500000000     0.798300000000     0.100351   
H10      H      0.380850000000     0.274500000000     0.131633333333     0.100351   
H10      H      0.380850000000     0.274500000000     0.464966666667     0.100351   
H10      H      0.380850000000     0.274500000000     0.798300000000     0.100351   
H10      H      0.380850000000     0.774500000000     0.131633333333     0.100351   
H10      H      0.380850000000     0.774500000000     0.464966666667     0.100351   
H10      H      0.380850000000     0.774500000000     0.798300000000     0.100351   
H10      H      0.630850000000     0.274500000000     0.131633333333     0.100351   
H10      H      0.630850000000     0.274500000000     0.464966666667     0.100351   
H10      H      0.630850000000     0.274500000000     0.798300000000     0.100351   
H10      H      0.630850000000     0.774500000000     0.131633333333     0.100351   
H10      H      0.630850000000     0.774500000000     0.464966666667     0.100351   
H10      H      0.630850000000     0.774500000000     0.798300000000     0.100351   
H10      H      0.880850000000     0.274500000000     0.131633333333     0.100351   
H10      H      0.880850000000     0.274500000000     0.464966666667     0.100351   
H10      H      0.880850000000     0.274500000000     0.798300000000     0.100351   
H10      H      0.880850000000     0.774500000000     0.131633333333     0.100351   
H10      H      0.880850000000     0.774500000000     0.464966666667     0.100351   
H10      H      0.880850000000     0.774500000000     0.798300000000     0.100351   
H11      H      0.244300000000     0.155050000000     0.234733333333     0.132815   
H11      H      0.244300000000     0.155050000000     0.568066666667     0.132815   
H11      H      0.244300000000     0.155050000000     0.901400000000     0.132815   
H11      H      0.244300000000     0.655050000000     0.234733333333     0.132815   
H11      H      0.244300000000     0.655050000000     0.568066666667     0.132815   
H11      H      0.244300000000     0.655050000000     0.901400000000     0.132815   
H11      H      0.494300000000     0.155050000000     0.234733333333     0.132815   
H11      H      0.494300000000     0.155050000000     0.568066666667     0.132815   
H11      H      0.494300000000     0.155050000000     0.901400000000     0.132815   
H11      H      0.494300000000     0.655050000000     0.234733333333     0.132815   
H11      H      0.494300000000     0.655050000000     0.568066666667     0.132815   
H11      H      0.494300000000     0.655050000000     0.901400000000     0.132815   
H11      H      0.744300000000     0.155050000000     0.234733333333     0.132815   
H11      H      0.744300000000     0.155050000000     0.568066666667     0.132815   
H11      H      0.744300000000     0.155050000000     0.901400000000     0.132815   
H11      H      0.744300000000     0.655050000000     0.234733333333     0.132815   
H11      H      0.744300000000     0.655050000000     0.568066666667     0.132815   
H11      H      0.744300000000     0.655050000000     0.901400000000     0.132815   
H11      H      0.994300000000     0.155050000000     0.234733333333     0.132815   
H11      H      0.994300000000     0.155050000000     0.568066666667     0.132815   
H11      H      0.994300000000     0.155050000000     0.901400000000     0.132815   
H11      H      0.994300000000     0.655050000000     0.234733333333     0.132815   
H11      H      0.994300000000     0.655050000000     0.568066666667     0.132815   
H11      H      0.994300000000     0.655050000000     0.901400000000     0.132815   
H12      H      0.119150000000     0.225500000000     0.201700000000    -0.238144   
H12      H      0.119150000000     0.225500000000     0.535033333333    -0.238144   
H12      H      0.119150000000     0.225500000000     0.868366666667    -0.238144   
H12      H      0.119150000000     0.725500000000     0.201700000000    -0.238144   
H12      H      0.119150000000     0.725500000000     0.535033333333    -0.238144   
H12      H      0.119150000000     0.725500000000     0.868366666667    -0.238144   
H12      H      0.369150000000     0.225500000000     0.201700000000    -0.238144   
H12      H      0.369150000000     0.225500000000     0.535033333333    -0.238144   
H12      H      0.369150000000     0.225500000000     0.868366666667    -0.238144   
H12      H      0.369150000000     0.725500000000     0.201700000000    -0.238144   
H12      H      0.369150000000     0.725500000000     0.535033333333    -0.238144   
H12      H      0.369150000000     0.725500000000     0.868366666667    -0.238144   
H12      H      0.619150000000     0.225500000000     0.201700000000    -0.238144   
H12      H      0.619150000000     0.225500000000     0.535033333333    -0.238144   
H12      H      0.619150000000     0.225500000000     0.868366666667    -0.238144   
H12      H      0.619150000000     0.725500000000     0.201700000000    -0.238144   
H12      H      0.619150000000     0.725500000000     0.535033333333    -0.238144   
H12      H      0.619150000000     0.725500000000     0.868366666667    -0.238144   
H12      H      0.869150000000     0.225500000000     0.201700000000    -0.238144   
H12      H      0.869150000000     0.225500000000     0.535033333333    -0.238144   
H12      H      0.869150000000     0.225500000000     0.868366666667    -0.238144   
H12      H      0.869150000000     0.725500000000     0.201700000000    -0.238144   
H12      H      0.869150000000     0.725500000000     0.535033333333    -0.238144   
H12      H      0.869150000000     0.725500000000     0.868366666667    -0.238144   
H13      H      0.158050000000     0.166550000000     0.119300000000    -0.238144   
H13      H      0.158050000000     0.166550000000     0.452633333333    -0.238144   
H13      H      0.158050000000     0.166550000000     0.785966666667    -0.238144   
H13      H      0.158050000000     0.666550000000     0.119300000000    -0.238144   
H13      H      0.158050000000     0.666550000000     0.452633333333    -0.238144   
H13      H      0.158050000000     0.666550000000     0.785966666667    -0.238144   
H13      H      0.408050000000     0.166550000000     0.119300000000    -0.238144   
H13      H      0.408050000000     0.166550000000     0.452633333333    -0.238144   
H13      H      0.408050000000     0.166550000000     0.785966666667    -0.238144   
H13      H      0.408050000000     0.666550000000     0.119300000000    -0.238144   
H13      H      0.408050000000     0.666550000000     0.452633333333    -0.238144   
H13      H      0.408050000000     0.666550000000     0.785966666667    -0.238144   
H13      H      0.658050000000     0.166550000000     0.119300000000    -0.238144   
H13      H      0.658050000000     0.166550000000     0.452633333333    -0.238144   
H13      H      0.658050000000     0.166550000000     0.785966666667    -0.238144   
H13      H      0.658050000000     0.666550000000     0.119300000000    -0.238144   
H13      H      0.658050000000     0.666550000000     0.452633333333    -0.238144   
H13      H      0.658050000000     0.666550000000     0.785966666667    -0.238144   
H13      H      0.908050000000     0.166550000000     0.119300000000    -0.238144   
H13      H      0.908050000000     0.166550000000     0.452633333333    -0.238144   
H13      H      0.908050000000     0.166550000000     0.785966666667    -0.238144   
H13      H      0.908050000000     0.666550000000     0.119300000000    -0.238144   
H13      H      0.908050000000     0.666550000000     0.452633333333    -0.238144   
H13      H      0.908050000000     0.666550000000     0.785966666667    -0.238144   
H14      H      0.158050000000     0.083450000000     0.285966666667    -0.238144   
H14      H      0.158050000000     0.083450000000     0.619300000000    -0.238144   
H14      H      0.158050000000     0.083450000000     0.952633333333    -0.238144   
H14      H      0.158050000000     0.583450000000     0.285966666667    -0.238144   
H14      H      0.158050000000     0.583450000000     0.619300000000    -0.238144   
H14      H      0.158050000000     0.583450000000     0.952633333333    -0.238144   
H14      H      0.408050000000     0.083450000000     0.285966666667    -0.238144   
H14      H      0.408050000000     0.083450000000     0.619300000000    -0.238144   
H14      H      0.408050000000     0.083450000000     0.952633333333    -0.238144   
H14      H      0.408050000000     0.583450000000     0.285966666667    -0.238144   
H14      H      0.408050000000     0.583450000000     0.619300000000    -0.238144   
H14      H      0.408050000000     0.583450000000     0.952633333333    -0.238144   
H14      H      0.658050000000     0.083450000000     0.285966666667    -0.238144   
H14      H      0.658050000000     0.083450000000     0.619300000000    -0.238144   
H14      H      0.658050000000     0.083450000000     0.952633333333    -0.238144   
H14      H      0.658050000000     0.583450000000     0.285966666667    -0.238144   
H14      H      0.658050000000     0.583450000000     0.619300000000    -0.238144   
H14      H      0.658050000000     0.583450000000     0.952633333333    -0.238144   
H14      H      0.908050000000     0.083450000000     0.285966666667    -0.238144   
H14      H      0.908050000000     0.083450000000     0.619300000000    -0.238144   
H14      H      0.908050000000     0.083450000000     0.952633333333    -0.238144   
H14      H      0.908050000000     0.583450000000     0.285966666667    -0.238144   
H14      H      0.908050000000     0.583450000000     0.619300000000    -0.238144   
H14      H      0.908050000000     0.583450000000     0.952633333333    -0.238144   
H15      H      0.099175000000     0.112850000000     0.260733333333    -0.238144   
H15      H      0.099175000000     0.112850000000     0.594066666667    -0.238144   
H15      H      0.099175000000     0.112850000000     0.927400000000    -0.238144   
H15      H      0.099175000000     0.612850000000     0.260733333333    -0.238144   
H15      H      0.099175000000     0.612850000000     0.594066666667    -0.238144   
H15      H      0.099175000000     0.612850000000     0.927400000000    -0.238144   
H15      H      0.349175000000     0.112850000000     0.260733333333    -0.238144   
H15      H      0.349175000000     0.112850000000     0.594066666667    -0.238144   
H15      H      0.349175000000     0.112850000000     0.927400000000    -0.238144   
H15      H      0.349175000000     0.612850000000     0.260733333333    -0.238144   
H15      H      0.349175000000     0.612850000000     0.594066666667    -0.238144   
H15      H      0.349175000000     0.612850000000     0.927400000000    -0.238144   
H15      H      0.599175000000     0.112850000000     0.260733333333    -0.238144   
H15      H      0.599175000000     0.112850000000     0.594066666667    -0.238144   
H15      H      0.599175000000     0.112850000000     0.927400000000    -0.238144   
H15      H      0.599175000000     0.612850000000     0.260733333333    -0.238144   
H15      H      0.599175000000     0.612850000000     0.594066666667    -0.238144   
H15      H      0.599175000000     0.612850000000     0.927400000000    -0.238144   
H15      H      0.849175000000     0.112850000000     0.260733333333    -0.238144   
H15      H      0.849175000000     0.112850000000     0.594066666667    -0.238144   
H15      H      0.849175000000     0.112850000000     0.927400000000    -0.238144   
H15      H      0.849175000000     0.612850000000     0.260733333333    -0.238144   
H15      H      0.849175000000     0.612850000000     0.594066666667    -0.238144   
H15      H      0.849175000000     0.612850000000     0.927400000000    -0.238144   
H16      H      0.053850000000     0.141050000000     0.202466666667    -0.534447   
H16      H      0.053850000000     0.141050000000     0.535800000000    -0.534447   
H16      H      0.053850000000     0.141050000000     0.869133333333    -0.534447   
H16      H      0.053850000000     0.641050000000     0.202466666667    -0.534447   
H16      H      0.053850000000     0.641050000000     0.535800000000    -0.534447   
H16      H      0.053850000000     0.641050000000     0.869133333333    -0.534447   
H16      H      0.303850000000     0.141050000000     0.202466666667    -0.534447   
H16      H      0.303850000000     0.141050000000     0.535800000000    -0.534447   
H16      H      0.303850000000     0.141050000000     0.869133333333    -0.534447   
H16      H      0.303850000000     0.641050000000     0.202466666667    -0.534447   
H16      H      0.303850000000     0.641050000000     0.535800000000    -0.534447   
H16      H      0.303850000000     0.641050000000     0.869133333333    -0.534447   
H16      H      0.553850000000     0.141050000000     0.202466666667    -0.534447   
H16      H      0.553850000000     0.141050000000     0.535800000000    -0.534447   
H16      H      0.553850000000     0.141050000000     0.869133333333    -0.534447   
H16      H      0.553850000000     0.641050000000     0.202466666667    -0.534447   
H16      H      0.553850000000     0.641050000000     0.535800000000    -0.534447   
H16      H      0.553850000000     0.641050000000     0.869133333333    -0.534447   
H16      H      0.803850000000     0.141050000000     0.202466666667    -0.534447   
H16      H      0.803850000000     0.141050000000     0.535800000000    -0.534447   
H16      H      0.803850000000     0.141050000000     0.869133333333    -0.534447   
H16      H      0.803850000000     0.641050000000     0.202466666667    -0.534447   
H16      H      0.803850000000     0.641050000000     0.535800000000    -0.534447   
H16      H      0.803850000000     0.641050000000     0.869133333333    -0.534447   
H17      H      0.244300000000     0.094950000000     0.068066666667    -0.569658   
H17      H      0.244300000000     0.094950000000     0.401400000000    -0.569658   
H17      H      0.244300000000     0.094950000000     0.734733333333    -0.569658   
H17      H      0.244300000000     0.594950000000     0.068066666667    -0.569658   
H17      H      0.244300000000     0.594950000000     0.401400000000    -0.569658   
H17      H      0.244300000000     0.594950000000     0.734733333333    -0.569658   
H17      H      0.494300000000     0.094950000000     0.068066666667    -0.569658   
H17      H      0.494300000000     0.094950000000     0.401400000000    -0.569658   
H17      H      0.494300000000     0.094950000000     0.734733333333    -0.569658   
H17      H      0.494300000000     0.594950000000     0.068066666667    -0.569658   
H17      H      0.494300000000     0.594950000000     0.401400000000    -0.569658   
H17      H      0.494300000000     0.594950000000     0.734733333333    -0.569658   
H17      H      0.744300000000     0.094950000000     0.068066666667    -0.569658   
H17      H      0.744300000000     0.094950000000     0.401400000000    -0.569658   
H17      H      0.744300000000     0.094950000000     0.734733333333    -0.569658   
H17      H      0.744300000000     0.594950000000     0.068066666667    -0.569658   
H17      H      0.744300000000     0.594950000000     0.401400000000    -0.569658   
H17      H      0.744300000000     0.594950000000     0.734733333333    -0.569658   
H17      H      0.994300000000     0.094950000000     0.068066666667    -0.569658   
H17      H      0.994300000000     0.094950000000     0.401400000000    -0.569658   
H17      H      0.994300000000     0.094950000000     0.734733333333    -0.569658   
H17      H      0.994300000000     0.594950000000     0.068066666667    -0.569658   
H17      H      0.994300000000     0.594950000000     0.401400000000    -0.569658   
H17      H      0.994300000000     0.594950000000     0.734733333333    -0.569658   
H18      H      0.062700000000     0.316250000000     0.326000000000    -0.569965   
H18      H      0.062700000000     0.316250000000     0.659333333333    -0.569965   
H18      H      0.062700000000     0.316250000000     0.992666666667    -0.569965   
H18      H      0.062700000000     0.816250000000     0.326000000000    -0.569965   
H18      H      0.062700000000     0.816250000000     0.659333333333    -0.569965   
H18      H      0.062700000000     0.816250000000     0.992666666667    -0.569965   
H18      H      0.312700000000     0.316250000000     0.326000000000    -0.569965   
H18      H      0.312700000000     0.316250000000     0.659333333333    -0.569965   
H18      H      0.312700000000     0.316250000000     0.992666666667    -0.569965   
H18      H      0.312700000000     0.816250000000     0.326000000000    -0.569965   
H18      H      0.312700000000     0.816250000000     0.659333333333    -0.569965   
H18      H      0.312700000000     0.816250000000     0.992666666667    -0.569965   
H18      H      0.562700000000     0.316250000000     0.326000000000    -0.569965   
H18      H      0.562700000000     0.316250000000     0.659333333333    -0.569965   
H18      H      0.562700000000     0.316250000000     0.992666666667    -0.569965   
H18      H      0.562700000000     0.816250000000     0.326000000000    -0.569965   
H18      H      0.562700000000     0.816250000000     0.659333333333    -0.569965   
H18      H      0.562700000000     0.816250000000     0.992666666667    -0.569965   
H18      H      0.812700000000     0.316250000000     0.326000000000    -0.569965   
H18      H      0.812700000000     0.316250000000     0.659333333333    -0.569965   
H18      H      0.812700000000     0.316250000000     0.992666666667    -0.569965   
H18      H      0.812700000000     0.816250000000     0.326000000000    -0.569965   
H18      H      0.812700000000     0.816250000000     0.659333333333    -0.569965   
H18      H      0.812700000000     0.816250000000     0.992666666667    -0.569965   
H19      H      0.187300000000     0.183750000000     0.007333333333    -0.552334   
H19      H      0.187300000000     0.183750000000     0.340666666667    -0.552334   
H19      H      0.187300000000     0.183750000000     0.674000000000    -0.552334   
H19      H      0.187300000000     0.683750000000     0.007333333333    -0.552334   
H19      H      0.187300000000     0.683750000000     0.340666666667    -0.552334   
H19      H      0.187300000000     0.683750000000     0.674000000000    -0.552334   
H19      H      0.437300000000     0.183750000000     0.007333333333    -0.552334   
H19      H      0.437300000000     0.183750000000     0.340666666667    -0.552334   
H19      H      0.437300000000     0.183750000000     0.674000000000    -0.552334   
H19      H      0.437300000000     0.683750000000     0.007333333333    -0.552334   
H19      H      0.437300000000     0.683750000000     0.340666666667    -0.552334   
H19      H      0.437300000000     0.683750000000     0.674000000000    -0.552334   
H19      H      0.687300000000     0.183750000000     0.007333333333    -0.552334   
H19      H      0.687300000000     0.183750000000     0.340666666667    -0.552334   
H19      H      0.687300000000     0.183750000000     0.674000000000    -0.552334   
H19      H      0.687300000000     0.683750000000     0.007333333333    -0.552334   
H19      H      0.687300000000     0.683750000000     0.340666666667    -0.552334   
H19      H      0.687300000000     0.683750000000     0.674000000000    -0.552334   
H19      H      0.937300000000     0.183750000000     0.007333333333    -0.552334   
H19      H      0.937300000000     0.183750000000     0.340666666667    -0.552334   
H19      H      0.937300000000     0.183750000000     0.674000000000    -0.552334   
H19      H      0.937300000000     0.683750000000     0.007333333333    -0.552334   
H19      H      0.937300000000     0.683750000000     0.340666666667    -0.552334   
H19      H      0.937300000000     0.683750000000     0.674000000000    -0.552334   
H20      H      0.091950000000     0.333450000000     0.214033333333    -0.569658   
H20      H      0.091950000000     0.333450000000     0.547366666667    -0.569658   
H20      H      0.091950000000     0.333450000000     0.880700000000    -0.569658   
H20      H      0.091950000000     0.833450000000     0.214033333333    -0.569658   
H20      H      0.091950000000     0.833450000000     0.547366666667    -0.569658   
H20      H      0.091950000000     0.833450000000     0.880700000000    -0.569658   
H20      H      0.341950000000     0.333450000000     0.214033333333    -0.569658   
H20      H      0.341950000000     0.333450000000     0.547366666667    -0.569658   
H20      H      0.341950000000     0.333450000000     0.880700000000    -0.569658   
H20      H      0.341950000000     0.833450000000     0.214033333333    -0.569658   
H20      H      0.341950000000     0.833450000000     0.547366666667    -0.569658   
H20      H      0.341950000000     0.833450000000     0.880700000000    -0.569658   
H20      H      0.591950000000     0.333450000000     0.214033333333    -0.569658   
H20      H      0.591950000000     0.333450000000     0.547366666667    -0.569658   
H20      H      0.591950000000     0.333450000000     0.880700000000    -0.569658   
H20      H      0.591950000000     0.833450000000     0.214033333333    -0.569658   
H20      H      0.591950000000     0.833450000000     0.547366666667    -0.569658   
H20      H      0.591950000000     0.833450000000     0.880700000000    -0.569658   
H20      H      0.841950000000     0.333450000000     0.214033333333    -0.569658   
H20      H      0.841950000000     0.333450000000     0.547366666667    -0.569658   
H20      H      0.841950000000     0.333450000000     0.880700000000    -0.569658   
H20      H      0.841950000000     0.833450000000     0.214033333333    -0.569658   
H20      H      0.841950000000     0.833450000000     0.547366666667    -0.569658   
H20      H      0.841950000000     0.833450000000     0.880700000000    -0.569658   
H21      H      0.005700000000     0.405050000000     0.265266666667    -0.534447   
H21      H      0.005700000000     0.405050000000     0.598600000000    -0.534447   
H21      H      0.005700000000     0.405050000000     0.931933333333    -0.534447   
H21      H      0.005700000000     0.905050000000     0.265266666667    -0.534447   
H21      H      0.005700000000     0.905050000000     0.598600000000    -0.534447   
H21      H      0.005700000000     0.905050000000     0.931933333333    -0.534447   
H21      H      0.255700000000     0.405050000000     0.265266666667    -0.534447   
H21      H      0.255700000000     0.405050000000     0.598600000000    -0.534447   
H21      H      0.255700000000     0.405050000000     0.931933333333    -0.534447   
H21      H      0.255700000000     0.905050000000     0.265266666667    -0.534447   
H21      H      0.255700000000     0.905050000000     0.598600000000    -0.534447   
H21      H      0.255700000000     0.905050000000     0.931933333333    -0.534447   
H21      H      0.505700000000     0.405050000000     0.265266666667    -0.534447   
H21      H      0.505700000000     0.405050000000     0.598600000000    -0.534447   
H21      H      0.505700000000     0.405050000000     0.931933333333    -0.534447   
H21      H      0.505700000000     0.905050000000     0.265266666667    -0.534447   
H21      H      0.505700000000     0.905050000000     0.598600000000    -0.534447   
H21      H      0.505700000000     0.905050000000     0.931933333333    -0.534447   
H21      H      0.755700000000     0.405050000000     0.265266666667    -0.534447   
H21      H      0.755700000000     0.405050000000     0.598600000000    -0.534447   
H21      H      0.755700000000     0.405050000000     0.931933333333    -0.534447   
H21      H      0.755700000000     0.905050000000     0.265266666667    -0.534447   
H21      H      0.755700000000     0.905050000000     0.598600000000    -0.534447   
H21      H      0.755700000000     0.905050000000     0.931933333333    -0.534447   
H22      H      0.005700000000     0.344950000000     0.098600000000    -0.552334   
H22      H      0.005700000000     0.344950000000     0.431933333333    -0.552334   
H22      H      0.005700000000     0.344950000000     0.765266666667    -0.552334   
H22      H      0.005700000000     0.844950000000     0.098600000000    -0.552334   
H22      H      0.005700000000     0.844950000000     0.431933333333    -0.552334   
H22      H      0.005700000000     0.844950000000     0.765266666667    -0.552334   
H22      H      0.255700000000     0.344950000000     0.098600000000    -0.552334   
H22      H      0.255700000000     0.344950000000     0.431933333333    -0.552334   
H22      H      0.255700000000     0.344950000000     0.765266666667    -0.552334   
H22      H      0.255700000000     0.844950000000     0.098600000000    -0.552334   
H22      H      0.255700000000     0.844950000000     0.431933333333    -0.552334   
H22      H      0.255700000000     0.844950000000     0.765266666667    -0.552334   
H22      H      0.505700000000     0.344950000000     0.098600000000    -0.552334   
H22      H      0.505700000000     0.344950000000     0.431933333333    -0.552334   
H22      H      0.505700000000     0.344950000000     0.765266666667    -0.552334   
H22      H      0.505700000000     0.844950000000     0.098600000000    -0.552334   
H22      H      0.505700000000     0.844950000000     0.431933333333    -0.552334   
H22      H      0.505700000000     0.844950000000     0.765266666667    -0.552334   
H22      H      0.755700000000     0.344950000000     0.098600000000    -0.552334   
H22      H      0.755700000000     0.344950000000     0.431933333333    -0.552334   
H22      H      0.755700000000     0.344950000000     0.765266666667    -0.552334   
H22      H      0.755700000000     0.844950000000     0.098600000000    -0.552334   
H22      H      0.755700000000     0.844950000000     0.431933333333    -0.552334   
H22      H      0.755700000000     0.844950000000     0.765266666667    -0.552334   
H23      H      0.053850000000     0.108950000000     0.035800000000    -0.552334   
H23      H      0.053850000000     0.108950000000     0.369133333333    -0.552334   
H23      H      0.053850000000     0.108950000000     0.702466666667    -0.552334   
H23      H      0.053850000000     0.608950000000     0.035800000000    -0.552334   
H23      H      0.053850000000     0.608950000000     0.369133333333    -0.552334   
H23      H      0.053850000000     0.608950000000     0.702466666667    -0.552334   
H23      H      0.303850000000     0.108950000000     0.035800000000    -0.552334   
H23      H      0.303850000000     0.108950000000     0.369133333333    -0.552334   
H23      H      0.303850000000     0.108950000000     0.702466666667    -0.552334   
H23      H      0.303850000000     0.608950000000     0.035800000000    -0.552334   
H23      H      0.303850000000     0.608950000000     0.369133333333    -0.552334   
H23      H      0.303850000000     0.608950000000     0.702466666667    -0.552334   
H23      H      0.553850000000     0.108950000000     0.035800000000    -0.552334   
H23      H      0.553850000000     0.108950000000     0.369133333333    -0.552334   
H23      H      0.553850000000     0.108950000000     0.702466666667    -0.552334   
H23      H      0.553850000000     0.608950000000     0.035800000000    -0.552334   
H23      H      0.553850000000     0.608950000000     0.369133333333    -0.552334   
H23      H      0.553850000000     0.608950000000     0.702466666667    -0.552334   
H23      H      0.803850000000     0.108950000000     0.035800000000    -0.552334   
H23      H      0.803850000000     0.108950000000     0.369133333333    -0.552334   
H23      H      0.803850000000     0.108950000000     0.702466666667    -0.552334   
H23      H      0.803850000000     0.608950000000     0.035800000000    -0.552334   
H23      H      0.803850000000     0.608950000000     0.369133333333    -0.552334   
H23      H      0.803850000000     0.608950000000     0.702466666667    -0.552334   
H24      H      0.062700000000     0.433750000000     0.159333333333    -0.569658   
H24      H      0.062700000000     0.433750000000     0.492666666667    -0.569658   
H24      H      0.062700000000     0.433750000000     0.826000000000    -0.569658   
H24      H      0.062700000000     0.933750000000     0.159333333333    -0.569658   
H24      H      0.062700000000     0.933750000000     0.492666666667    -0.569658   
H24      H      0.062700000000     0.933750000000     0.826000000000    -0.569658   
H24      H      0.312700000000     0.433750000000     0.159333333333    -0.569658   
H24      H      0.312700000000     0.433750000000     0.492666666667    -0.569658   
H24      H      0.312700000000     0.433750000000     0.826000000000    -0.569658   
H24      H      0.312700000000     0.933750000000     0.159333333333    -0.569658   
H24      H      0.312700000000     0.933750000000     0.492666666667    -0.569658   
H24      H      0.312700000000     0.933750000000     0.826000000000    -0.569658   
H24      H      0.562700000000     0.433750000000     0.159333333333    -0.569658   
H24      H      0.562700000000     0.433750000000     0.492666666667    -0.569658   
H24      H      0.562700000000     0.433750000000     0.826000000000    -0.569658   
H24      H      0.562700000000     0.933750000000     0.159333333333    -0.569658   
H24      H      0.562700000000     0.933750000000     0.492666666667    -0.569658   
H24      H      0.562700000000     0.933750000000     0.826000000000    -0.569658   
H24      H      0.812700000000     0.433750000000     0.159333333333    -0.569658   
H24      H      0.812700000000     0.433750000000     0.492666666667    -0.569658   
H24      H      0.812700000000     0.433750000000     0.826000000000    -0.569658   
H24      H      0.812700000000     0.933750000000     0.159333333333    -0.569658   
H24      H      0.812700000000     0.933750000000     0.492666666667    -0.569658   
H24      H      0.812700000000     0.933750000000     0.826000000000    -0.569658   
H25      H      0.099175000000     0.137150000000     0.094066666667    -0.534447   
H25      H      0.099175000000     0.137150000000     0.427400000000    -0.534447   
H25      H      0.099175000000     0.137150000000     0.760733333333    -0.534447   
H25      H      0.099175000000     0.637150000000     0.094066666667    -0.534447   
H25      H      0.099175000000     0.637150000000     0.427400000000    -0.534447   
H25      H      0.099175000000     0.637150000000     0.760733333333    -0.534447   
H25      H      0.349175000000     0.137150000000     0.094066666667    -0.534447   
H25      H      0.349175000000     0.137150000000     0.427400000000    -0.534447   
H25      H      0.349175000000     0.137150000000     0.760733333333    -0.534447   
H25      H      0.349175000000     0.637150000000     0.094066666667    -0.534447   
H25      H      0.349175000000     0.637150000000     0.427400000000    -0.534447   
H25      H      0.349175000000     0.637150000000     0.760733333333    -0.534447   
H25      H      0.599175000000     0.137150000000     0.094066666667    -0.534447   
H25      H      0.599175000000     0.137150000000     0.427400000000    -0.534447   
H25      H      0.599175000000     0.137150000000     0.760733333333    -0.534447   
H25      H      0.599175000000     0.637150000000     0.094066666667    -0.534447   
H25      H      0.599175000000     0.637150000000     0.427400000000    -0.534447   
H25      H      0.599175000000     0.637150000000     0.760733333333    -0.534447   
H25      H      0.849175000000     0.137150000000     0.094066666667    -0.534447   
H25      H      0.849175000000     0.137150000000     0.427400000000    -0.534447   
H25      H      0.849175000000     0.137150000000     0.760733333333    -0.534447   
H25      H      0.849175000000     0.637150000000     0.094066666667    -0.534447   
H25      H      0.849175000000     0.637150000000     0.427400000000    -0.534447   
H25      H      0.849175000000     0.637150000000     0.760733333333    -0.534447   
H26      H      0.166300000000     0.050800000000     0.092466666667    -0.569965   
H26      H      0.166300000000     0.050800000000     0.425800000000    -0.569965   
H26      H      0.166300000000     0.050800000000     0.759133333333    -0.569965   
H26      H      0.166300000000     0.550800000000     0.092466666667    -0.569965   
H26      H      0.166300000000     0.550800000000     0.425800000000    -0.569965   
H26      H      0.166300000000     0.550800000000     0.759133333333    -0.569965   
H26      H      0.416300000000     0.050800000000     0.092466666667    -0.569965   
H26      H      0.416300000000     0.050800000000     0.425800000000    -0.569965   
H26      H      0.416300000000     0.050800000000     0.759133333333    -0.569965   
H26      H      0.416300000000     0.550800000000     0.092466666667    -0.569965   
H26      H      0.416300000000     0.550800000000     0.425800000000    -0.569965   
H26      H      0.416300000000     0.550800000000     0.759133333333    -0.569965   
H26      H      0.666300000000     0.050800000000     0.092466666667    -0.569965   
H26      H      0.666300000000     0.050800000000     0.425800000000    -0.569965   
H26      H      0.666300000000     0.050800000000     0.759133333333    -0.569965   
H26      H      0.666300000000     0.550800000000     0.092466666667    -0.569965   
H26      H      0.666300000000     0.550800000000     0.425800000000    -0.569965   
H26      H      0.666300000000     0.550800000000     0.759133333333    -0.569965   
H26      H      0.916300000000     0.050800000000     0.092466666667    -0.569965   
H26      H      0.916300000000     0.050800000000     0.425800000000    -0.569965   
H26      H      0.916300000000     0.050800000000     0.759133333333    -0.569965   
H26      H      0.916300000000     0.550800000000     0.092466666667    -0.569965   
H26      H      0.916300000000     0.550800000000     0.425800000000    -0.569965   
H26      H      0.916300000000     0.550800000000     0.759133333333    -0.569965   
H27      H      0.119150000000     0.024500000000     0.035033333333    -0.552334   
H27      H      0.119150000000     0.024500000000     0.368366666667    -0.552334   
H27      H      0.119150000000     0.024500000000     0.701700000000    -0.552334   
H27      H      0.119150000000     0.524500000000     0.035033333333    -0.552334   
H27      H      0.119150000000     0.524500000000     0.368366666667    -0.552334   
H27      H      0.119150000000     0.524500000000     0.701700000000    -0.552334   
H27      H      0.369150000000     0.024500000000     0.035033333333    -0.552334   
H27      H      0.369150000000     0.024500000000     0.368366666667    -0.552334   
H27      H      0.369150000000     0.024500000000     0.701700000000    -0.552334   
H27      H      0.369150000000     0.524500000000     0.035033333333    -0.552334   
H27      H      0.369150000000     0.524500000000     0.368366666667    -0.552334   
H27      H      0.369150000000     0.524500000000     0.701700000000    -0.552334   
H27      H      0.619150000000     0.024500000000     0.035033333333    -0.552334   
H27      H      0.619150000000     0.024500000000     0.368366666667    -0.552334   
H27      H      0.619150000000     0.024500000000     0.701700000000    -0.552334   
H27      H      0.619150000000     0.524500000000     0.035033333333    -0.552334   
H27      H      0.619150000000     0.524500000000     0.368366666667    -0.552334   
H27      H      0.619150000000     0.524500000000     0.701700000000    -0.552334   
H27      H      0.869150000000     0.024500000000     0.035033333333    -0.552334   
H27      H      0.869150000000     0.024500000000     0.368366666667    -0.552334   
H27      H      0.869150000000     0.024500000000     0.701700000000    -0.552334   
H27      H      0.869150000000     0.524500000000     0.035033333333    -0.552334   
H27      H      0.869150000000     0.524500000000     0.368366666667    -0.552334   
H27      H      0.869150000000     0.524500000000     0.701700000000    -0.552334   
H28      H      0.166300000000     0.199200000000     0.259133333333    -0.569658   
H28      H      0.166300000000     0.199200000000     0.592466666667    -0.569658   
H28      H      0.166300000000     0.199200000000     0.925800000000    -0.569658   
H28      H      0.166300000000     0.699200000000     0.259133333333    -0.569658   
H28      H      0.166300000000     0.699200000000     0.592466666667    -0.569658   
H28      H      0.166300000000     0.699200000000     0.925800000000    -0.569658   
H28      H      0.416300000000     0.199200000000     0.259133333333    -0.569658   
H28      H      0.416300000000     0.199200000000     0.592466666667    -0.569658   
H28      H      0.416300000000     0.199200000000     0.925800000000    -0.569658   
H28      H      0.416300000000     0.699200000000     0.259133333333    -0.569658   
H28      H      0.416300000000     0.699200000000     0.592466666667    -0.569658   
H28      H      0.416300000000     0.699200000000     0.925800000000    -0.569658   
H28      H      0.666300000000     0.199200000000     0.259133333333    -0.569658   
H28      H      0.666300000000     0.199200000000     0.592466666667    -0.569658   
H28      H      0.666300000000     0.199200000000     0.925800000000    -0.569658   
H28      H      0.666300000000     0.699200000000     0.259133333333    -0.569658   
H28      H      0.666300000000     0.699200000000     0.592466666667    -0.569658   
H28      H      0.666300000000     0.699200000000     0.925800000000    -0.569658   
H28      H      0.916300000000     0.199200000000     0.259133333333    -0.569658   
H28      H      0.916300000000     0.199200000000     0.592466666667    -0.569658   
H28      H      0.916300000000     0.199200000000     0.925800000000    -0.569658   
H28      H      0.916300000000     0.699200000000     0.259133333333    -0.569658   
H28      H      0.916300000000     0.699200000000     0.592466666667    -0.569658   
H28      H      0.916300000000     0.699200000000     0.925800000000    -0.569658   
N1       N      0.168575000000     0.313755000000     0.136233333333    -0.534447   
N1       N      0.168575000000     0.313755000000     0.469566666667    -0.534447   
N1       N      0.168575000000     0.313755000000     0.802900000000    -0.534447   
N1       N      0.168575000000     0.813755000000     0.136233333333    -0.534447   
N1       N      0.168575000000     0.813755000000     0.469566666667    -0.534447   
N1       N      0.168575000000     0.813755000000     0.802900000000    -0.534447   
N1       N      0.418575000000     0.313755000000     0.136233333333    -0.534447   
N1       N      0.418575000000     0.313755000000     0.469566666667    -0.534447   
N1       N      0.418575000000     0.313755000000     0.802900000000    -0.534447   
N1       N      0.418575000000     0.813755000000     0.136233333333    -0.534447   
N1       N      0.418575000000     0.813755000000     0.469566666667    -0.534447   
N1       N      0.418575000000     0.813755000000     0.802900000000    -0.534447   
N1       N      0.668575000000     0.313755000000     0.136233333333    -0.534447   
N1       N      0.668575000000     0.313755000000     0.469566666667    -0.534447   
N1       N      0.668575000000     0.313755000000     0.802900000000    -0.534447   
N1       N      0.668575000000     0.813755000000     0.136233333333    -0.534447   
N1       N      0.668575000000     0.813755000000     0.469566666667    -0.534447   
N1       N      0.668575000000     0.813755000000     0.802900000000    -0.534447   
N1       N      0.918575000000     0.313755000000     0.136233333333    -0.534447   
N1       N      0.918575000000     0.313755000000     0.469566666667    -0.534447   
N1       N      0.918575000000     0.313755000000     0.802900000000    -0.534447   
N1       N      0.918575000000     0.813755000000     0.136233333333    -0.534447   
N1       N      0.918575000000     0.813755000000     0.469566666667    -0.534447   
N1       N      0.918575000000     0.813755000000     0.802900000000    -0.534447   
N2       N      0.081425000000     0.186245000000     0.197100000000    -0.569965   
N2       N      0.081425000000     0.186245000000     0.530433333333    -0.569965   
N2       N      0.081425000000     0.186245000000     0.863766666667    -0.569965   
N2       N      0.081425000000     0.686245000000     0.197100000000    -0.569965   
N2       N      0.081425000000     0.686245000000     0.530433333333    -0.569965   
N2       N      0.081425000000     0.686245000000     0.863766666667    -0.569965   
N2       N      0.331425000000     0.186245000000     0.197100000000    -0.569965   
N2       N      0.331425000000     0.186245000000     0.530433333333    -0.569965   
N2       N      0.331425000000     0.186245000000     0.863766666667    -0.569965   
N2       N      0.331425000000     0.686245000000     0.197100000000    -0.569965   
N2       N      0.331425000000     0.686245000000     0.530433333333    -0.569965   
N2       N      0.331425000000     0.686245000000     0.863766666667    -0.569965   
N2       N      0.581425000000     0.186245000000     0.197100000000    -0.569965   
N2       N      0.581425000000     0.186245000000     0.530433333333    -0.569965   
N2       N      0.581425000000     0.186245000000     0.863766666667    -0.569965   
N2       N      0.581425000000     0.686245000000     0.197100000000    -0.569965   
N2       N      0.581425000000     0.686245000000     0.530433333333    -0.569965   
N2       N      0.581425000000     0.686245000000     0.863766666667    -0.569965   
N2       N      0.831425000000     0.186245000000     0.197100000000    -0.569965   
N2       N      0.831425000000     0.186245000000     0.530433333333    -0.569965   
N2       N      0.831425000000     0.186245000000     0.863766666667    -0.569965   
N2       N      0.831425000000     0.686245000000     0.197100000000    -0.569965   
N2       N      0.831425000000     0.686245000000     0.530433333333    -0.569965   
N2       N      0.831425000000     0.686245000000     0.863766666667    -0.569965   
N3       N      0.081425000000     0.063755000000     0.030433333333    -0.569965   
N3       N      0.081425000000     0.063755000000     0.363766666667    -0.569965   
N3       N      0.081425000000     0.063755000000     0.697100000000    -0.569965   
N3       N      0.081425000000     0.563755000000     0.030433333333    -0.569965   
N3       N      0.081425000000     0.563755000000     0.363766666667    -0.569965   
N3       N      0.081425000000     0.563755000000     0.697100000000    -0.569965   
N3       N      0.331425000000     0.063755000000     0.030433333333    -0.569965   
N3       N      0.331425000000     0.063755000000     0.363766666667    -0.569965   
N3       N      0.331425000000     0.063755000000     0.697100000000    -0.569965   
N3       N      0.331425000000     0.563755000000     0.030433333333    -0.569965   
N3       N      0.331425000000     0.563755000000     0.363766666667    -0.569965   
N3       N      0.331425000000     0.563755000000     0.697100000000    -0.569965   
N3       N      0.581425000000     0.063755000000     0.030433333333    -0.569965   
N3       N      0.581425000000     0.063755000000     0.363766666667    -0.569965   
N3       N      0.581425000000     0.063755000000     0.697100000000    -0.569965   
N3       N      0.581425000000     0.563755000000     0.030433333333    -0.569965   
N3       N      0.581425000000     0.563755000000     0.363766666667    -0.569965   
N3       N      0.581425000000     0.563755000000     0.697100000000    -0.569965   
N3       N      0.831425000000     0.063755000000     0.030433333333    -0.569965   
N3       N      0.831425000000     0.063755000000     0.363766666667    -0.569965   
N3       N      0.831425000000     0.063755000000     0.697100000000    -0.569965   
N3       N      0.831425000000     0.563755000000     0.030433333333    -0.569965   
N3       N      0.831425000000     0.563755000000     0.363766666667    -0.569965   
N3       N      0.831425000000     0.563755000000     0.697100000000    -0.569965   
N4       N      0.168575000000     0.436245000000     0.302900000000     0.004782   
N4       N      0.168575000000     0.436245000000     0.636233333333     0.004782   
N4       N      0.168575000000     0.436245000000     0.969566666667     0.004782   
N4       N      0.168575000000     0.936245000000     0.302900000000     0.004782   
N4       N      0.168575000000     0.936245000000     0.636233333333     0.004782   
N4       N      0.168575000000     0.936245000000     0.969566666667     0.004782   
N4       N      0.418575000000     0.436245000000     0.302900000000     0.004782   
N4       N      0.418575000000     0.436245000000     0.636233333333     0.004782   
N4       N      0.418575000000     0.436245000000     0.969566666667     0.004782   
N4       N      0.418575000000     0.936245000000     0.302900000000     0.004782   
N4       N      0.418575000000     0.936245000000     0.636233333333     0.004782   
N4       N      0.418575000000     0.936245000000     0.969566666667     0.004782   
N4       N      0.668575000000     0.436245000000     0.302900000000     0.004782   
N4       N      0.668575000000     0.436245000000     0.636233333333     0.004782   
N4       N      0.668575000000     0.436245000000     0.969566666667     0.004782   
N4       N      0.668575000000     0.936245000000     0.302900000000     0.004782   
N4       N      0.668575000000     0.936245000000     0.636233333333     0.004782   
N4       N      0.668575000000     0.936245000000     0.969566666667     0.004782   
N4       N      0.918575000000     0.436245000000     0.302900000000     0.004782   
N4       N      0.918575000000     0.436245000000     0.636233333333     0.004782   
N4       N      0.918575000000     0.436245000000     0.969566666667     0.004782   
N4       N      0.918575000000     0.936245000000     0.302900000000     0.004782   
N4       N      0.918575000000     0.936245000000     0.636233333333     0.004782   
N4       N      0.918575000000     0.936245000000     0.969566666667     0.004782   
O1       O      0.067200000000     0.478595000000     0.008266666667    -0.154058   
O1       O      0.067200000000     0.478595000000     0.341600000000    -0.154058   
O1       O      0.067200000000     0.478595000000     0.674933333333    -0.154058   
O1       O      0.067200000000     0.978595000000     0.008266666667    -0.154058   
O1       O      0.067200000000     0.978595000000     0.341600000000    -0.154058   
O1       O      0.067200000000     0.978595000000     0.674933333333    -0.154058   
O1       O      0.317200000000     0.478595000000     0.008266666667    -0.154058   
O1       O      0.317200000000     0.478595000000     0.341600000000    -0.154058   
O1       O      0.317200000000     0.478595000000     0.674933333333    -0.154058   
O1       O      0.317200000000     0.978595000000     0.008266666667    -0.154058   
O1       O      0.317200000000     0.978595000000     0.341600000000    -0.154058   
O1       O      0.317200000000     0.978595000000     0.674933333333    -0.154058   
O1       O      0.567200000000     0.478595000000     0.008266666667    -0.154058   
O1       O      0.567200000000     0.478595000000     0.341600000000    -0.154058   
O1       O      0.567200000000     0.478595000000     0.674933333333    -0.154058   
O1       O      0.567200000000     0.978595000000     0.008266666667    -0.154058   
O1       O      0.567200000000     0.978595000000     0.341600000000    -0.154058   
O1       O      0.567200000000     0.978595000000     0.674933333333    -0.154058   
O1       O      0.817200000000     0.478595000000     0.008266666667    -0.154058   
O1       O      0.817200000000     0.478595000000     0.341600000000    -0.154058   
O1       O      0.817200000000     0.478595000000     0.674933333333    -0.154058   
O1       O      0.817200000000     0.978595000000     0.008266666667    -0.154058   
O1       O      0.817200000000     0.978595000000     0.341600000000    -0.154058   
O1       O      0.817200000000     0.978595000000     0.674933333333    -0.154058   
O2       O      0.007875000000     0.469350000000     0.302800000000    -0.010613   
O2       O      0.007875000000     0.469350000000     0.636133333333    -0.010613   
O2       O      0.007875000000     0.469350000000     0.969466666667    -0.010613   
O2       O      0.007875000000     0.969350000000     0.302800000000    -0.010613   
O2       O      0.007875000000     0.969350000000     0.636133333333    -0.010613   
O2       O      0.007875000000     0.969350000000     0.969466666667    -0.010613   
O2       O      0.257875000000     0.469350000000     0.302800000000    -0.010613   
O2       O      0.257875000000     0.469350000000     0.636133333333    -0.010613   
O2       O      0.257875000000     0.469350000000     0.969466666667    -0.010613   
O2       O      0.257875000000     0.969350000000     0.302800000000    -0.010613   
O2       O      0.257875000000     0.969350000000     0.636133333333    -0.010613   
O2       O      0.257875000000     0.969350000000     0.969466666667    -0.010613   
O2       O      0.507875000000     0.469350000000     0.302800000000    -0.010613   
O2       O      0.507875000000     0.469350000000     0.636133333333    -0.010613   
O2       O      0.507875000000     0.469350000000     0.969466666667    -0.010613   
O2       O      0.507875000000     0.969350000000     0.302800000000    -0.010613   
O2       O      0.507875000000     0.969350000000     0.636133333333    -0.010613   
O2       O      0.507875000000     0.969350000000     0.969466666667    -0.010613   
O2       O      0.757875000000     0.469350000000     0.302800000000    -0.010613   
O2       O      0.757875000000     0.469350000000     0.636133333333    -0.010613   
O2       O      0.757875000000     0.469350000000     0.969466666667    -0.010613   
O2       O      0.757875000000     0.969350000000     0.302800000000    -0.010613   
O2       O      0.757875000000     0.969350000000     0.636133333333    -0.010613   
O2       O      0.757875000000     0.969350000000     0.969466666667    -0.010613   
O3       O      0.019475000000     0.152955000000     0.112733333333     0.567036   
O3       O      0.019475000000     0.152955000000     0.446066666667     0.567036   
O3       O      0.019475000000     0.152955000000     0.779400000000     0.567036   
O3       O      0.019475000000     0.652955000000     0.112733333333     0.567036   
O3       O      0.019475000000     0.652955000000     0.446066666667     0.567036   
O3       O      0.019475000000     0.652955000000     0.779400000000     0.567036   
O3       O      0.269475000000     0.152955000000     0.112733333333     0.567036   
O3       O      0.269475000000     0.152955000000     0.446066666667     0.567036   
O3       O      0.269475000000     0.152955000000     0.779400000000     0.567036   
O3       O      0.269475000000     0.652955000000     0.112733333333     0.567036   
O3       O      0.269475000000     0.652955000000     0.446066666667     0.567036   
O3       O      0.269475000000     0.652955000000     0.779400000000     0.567036   
O3       O      0.519475000000     0.152955000000     0.112733333333     0.567036   
O3       O      0.519475000000     0.152955000000     0.446066666667     0.567036   
O3       O      0.519475000000     0.152955000000     0.779400000000     0.567036   
O3       O      0.519475000000     0.652955000000     0.112733333333     0.567036   
O3       O      0.519475000000     0.652955000000     0.446066666667     0.567036   
O3       O      0.519475000000     0.652955000000     0.779400000000     0.567036   
O3       O      0.769475000000     0.152955000000     0.112733333333     0.567036   
O3       O      0.769475000000     0.152955000000     0.446066666667     0.567036   
O3       O      0.769475000000     0.152955000000     0.779400000000     0.567036   
O3       O      0.769475000000     0.652955000000     0.112733333333     0.567036   
O3       O      0.769475000000     0.652955000000     0.446066666667     0.567036   
O3       O      0.769475000000     0.652955000000     0.779400000000     0.567036   
O4       O      0.234525000000     0.049440000000     0.249600000000    -0.130646   
O4       O      0.234525000000     0.049440000000     0.582933333333    -0.130646   
O4       O      0.234525000000     0.049440000000     0.916266666667    -0.130646   
O4       O      0.234525000000     0.549440000000     0.249600000000    -0.130646   
O4       O      0.234525000000     0.549440000000     0.582933333333    -0.130646   
O4       O      0.234525000000     0.549440000000     0.916266666667    -0.130646   
O4       O      0.484525000000     0.049440000000     0.249600000000    -0.130646   
O4       O      0.484525000000     0.049440000000     0.582933333333    -0.130646   
O4       O      0.484525000000     0.049440000000     0.916266666667    -0.130646   
O4       O      0.484525000000     0.549440000000     0.249600000000    -0.130646   
O4       O      0.484525000000     0.549440000000     0.582933333333    -0.130646   
O4       O      0.484525000000     0.549440000000     0.916266666667    -0.130646   
O4       O      0.734525000000     0.049440000000     0.249600000000    -0.130646   
O4       O      0.734525000000     0.049440000000     0.582933333333    -0.130646   
O4       O      0.734525000000     0.049440000000     0.916266666667    -0.130646   
O4       O      0.734525000000     0.549440000000     0.249600000000    -0.130646   
O4       O      0.734525000000     0.549440000000     0.582933333333    -0.130646   
O4       O      0.734525000000     0.549440000000     0.916266666667    -0.130646   
O4       O      0.984525000000     0.049440000000     0.249600000000    -0.130646   
O4       O      0.984525000000     0.049440000000     0.582933333333    -0.130646   
O4       O      0.984525000000     0.049440000000     0.916266666667    -0.130646   
O4       O      0.984525000000     0.549440000000     0.249600000000    -0.130646   
O4       O      0.984525000000     0.549440000000     0.582933333333    -0.130646   
O4       O      0.984525000000     0.549440000000     0.916266666667    -0.130646   
O5       O      0.242125000000     0.219350000000     0.197200000000     0.558541   
O5       O      0.242125000000     0.219350000000     0.530533333333     0.558541   
O5       O      0.242125000000     0.219350000000     0.863866666667     0.558541   
O5       O      0.242125000000     0.719350000000     0.197200000000     0.558541   
O5       O      0.242125000000     0.719350000000     0.530533333333     0.558541   
O5       O      0.242125000000     0.719350000000     0.863866666667     0.558541   
O5       O      0.492125000000     0.219350000000     0.197200000000     0.558541   
O5       O      0.492125000000     0.219350000000     0.530533333333     0.558541   
O5       O      0.492125000000     0.219350000000     0.863866666667     0.558541   
O5       O      0.492125000000     0.719350000000     0.197200000000     0.558541   
O5       O      0.492125000000     0.719350000000     0.530533333333     0.558541   
O5       O      0.492125000000     0.719350000000     0.863866666667     0.558541   
O5       O      0.742125000000     0.219350000000     0.197200000000     0.558541   
O5       O      0.742125000000     0.219350000000     0.530533333333     0.558541   
O5       O      0.742125000000     0.219350000000     0.863866666667     0.558541   
O5       O      0.742125000000     0.719350000000     0.197200000000     0.558541   
O5       O      0.742125000000     0.719350000000     0.530533333333     0.558541   
O5       O      0.742125000000     0.719350000000     0.863866666667     0.558541   
O5       O      0.992125000000     0.219350000000     0.197200000000     0.558541   
O5       O      0.992125000000     0.219350000000     0.530533333333     0.558541   
O5       O      0.992125000000     0.219350000000     0.863866666667     0.558541   
O5       O      0.992125000000     0.719350000000     0.197200000000     0.558541   
O5       O      0.992125000000     0.719350000000     0.530533333333     0.558541   
O5       O      0.992125000000     0.719350000000     0.863866666667     0.558541   
O6       O      0.182800000000     0.228595000000     0.158400000000     0.065046   
O6       O      0.182800000000     0.228595000000     0.491733333333     0.065046   
O6       O      0.182800000000     0.228595000000     0.825066666667     0.065046   
O6       O      0.182800000000     0.728595000000     0.158400000000     0.065046   
O6       O      0.182800000000     0.728595000000     0.491733333333     0.065046   
O6       O      0.182800000000     0.728595000000     0.825066666667     0.065046   
O6       O      0.432800000000     0.228595000000     0.158400000000     0.065046   
O6       O      0.432800000000     0.228595000000     0.491733333333     0.065046   
O6       O      0.432800000000     0.228595000000     0.825066666667     0.065046   
O6       O      0.432800000000     0.728595000000     0.158400000000     0.065046   
O6       O      0.432800000000     0.728595000000     0.491733333333     0.065046   
O6       O      0.432800000000     0.728595000000     0.825066666667     0.065046   
O6       O      0.682800000000     0.228595000000     0.158400000000     0.065046   
O6       O      0.682800000000     0.228595000000     0.491733333333     0.065046   
O6       O      0.682800000000     0.228595000000     0.825066666667     0.065046   
O6       O      0.682800000000     0.728595000000     0.158400000000     0.065046   
O6       O      0.682800000000     0.728595000000     0.491733333333     0.065046   
O6       O      0.682800000000     0.728595000000     0.825066666667     0.065046   
O6       O      0.932800000000     0.228595000000     0.158400000000     0.065046   
O6       O      0.932800000000     0.228595000000     0.491733333333     0.065046   
O6       O      0.932800000000     0.228595000000     0.825066666667     0.065046   
O6       O      0.932800000000     0.728595000000     0.158400000000     0.065046   
O6       O      0.932800000000     0.728595000000     0.491733333333     0.065046   
O6       O      0.932800000000     0.728595000000     0.825066666667     0.065046   
O7       O      0.015475000000     0.299440000000     0.250400000000    -0.150167   
O7       O      0.015475000000     0.299440000000     0.583733333333    -0.150167   
O7       O      0.015475000000     0.299440000000     0.917066666667    -0.150167   
O7       O      0.015475000000     0.799440000000     0.250400000000    -0.150167   
O7       O      0.015475000000     0.799440000000     0.583733333333    -0.150167   
O7       O      0.015475000000     0.799440000000     0.917066666667    -0.150167   
O7       O      0.265475000000     0.299440000000     0.250400000000    -0.150167   
O7       O      0.265475000000     0.299440000000     0.583733333333    -0.150167   
O7       O      0.265475000000     0.299440000000     0.917066666667    -0.150167   
O7       O      0.265475000000     0.799440000000     0.250400000000    -0.150167   
O7       O      0.265475000000     0.799440000000     0.583733333333    -0.150167   
O7       O      0.265475000000     0.799440000000     0.917066666667    -0.150167   
O7       O      0.515475000000     0.299440000000     0.250400000000    -0.150167   
O7       O      0.515475000000     0.299440000000     0.583733333333    -0.150167   
O7       O      0.515475000000     0.299440000000     0.917066666667    -0.150167   
O7       O      0.515475000000     0.799440000000     0.250400000000    -0.150167   
O7       O      0.515475000000     0.799440000000     0.583733333333    -0.150167   
O7       O      0.515475000000     0.799440000000     0.917066666667    -0.150167   
O7       O      0.765475000000     0.299440000000     0.250400000000    -0.150167   
O7       O      0.765475000000     0.299440000000     0.583733333333    -0.150167   
O7       O      0.765475000000     0.299440000000     0.917066666667    -0.150167   
O7       O      0.765475000000     0.799440000000     0.250400000000    -0.150167   
O7       O      0.765475000000     0.799440000000     0.583733333333    -0.150167   
O7       O      0.765475000000     0.799440000000     0.917066666667    -0.150167   
O8       O      0.234525000000     0.200560000000     0.082933333333    -0.150167   
O8       O      0.234525000000     0.200560000000     0.416266666667    -0.150167   
O8       O      0.234525000000     0.200560000000     0.749600000000    -0.150167   
O8       O      0.234525000000     0.700560000000     0.082933333333    -0.150167   
O8       O      0.234525000000     0.700560000000     0.416266666667    -0.150167   
O8       O      0.234525000000     0.700560000000     0.749600000000    -0.150167   
O8       O      0.484525000000     0.200560000000     0.082933333333    -0.150167   
O8       O      0.484525000000     0.200560000000     0.416266666667    -0.150167   
O8       O      0.484525000000     0.200560000000     0.749600000000    -0.150167   
O8       O      0.484525000000     0.700560000000     0.082933333333    -0.150167   
O8       O      0.484525000000     0.700560000000     0.416266666667    -0.150167   
O8       O      0.484525000000     0.700560000000     0.749600000000    -0.150167   
O8       O      0.734525000000     0.200560000000     0.082933333333    -0.150167   
O8       O      0.734525000000     0.200560000000     0.416266666667    -0.150167   
O8       O      0.734525000000     0.200560000000     0.749600000000    -0.150167   
O8       O      0.734525000000     0.700560000000     0.082933333333    -0.150167   
O8       O      0.734525000000     0.700560000000     0.416266666667    -0.150167   
O8       O      0.734525000000     0.700560000000     0.749600000000    -0.150167   
O8       O      0.984525000000     0.200560000000     0.082933333333    -0.150167   
O8       O      0.984525000000     0.200560000000     0.416266666667    -0.150167   
O8       O      0.984525000000     0.200560000000     0.749600000000    -0.150167   
O8       O      0.984525000000     0.700560000000     0.082933333333    -0.150167   
O8       O      0.984525000000     0.700560000000     0.416266666667    -0.150167   
O8       O      0.984525000000     0.700560000000     0.749600000000    -0.150167   
O9       O      0.242125000000     0.030650000000     0.030533333333     0.004782   
O9       O      0.242125000000     0.030650000000     0.363866666667     0.004782   
O9       O      0.242125000000     0.030650000000     0.697200000000     0.004782   
O9       O      0.242125000000     0.530650000000     0.030533333333     0.004782   
O9       O      0.242125000000     0.530650000000     0.363866666667     0.004782   
O9       O      0.242125000000     0.530650000000     0.697200000000     0.004782   
O9       O      0.492125000000     0.030650000000     0.030533333333     0.004782   
O9       O      0.492125000000     0.030650000000     0.363866666667     0.004782   
O9       O      0.492125000000     0.030650000000     0.697200000000     0.004782   
O9       O      0.492125000000     0.530650000000     0.030533333333     0.004782   
O9       O      0.492125000000     0.530650000000     0.363866666667     0.004782   
O9       O      0.492125000000     0.530650000000     0.697200000000     0.004782   
O9       O      0.742125000000     0.030650000000     0.030533333333     0.004782   
O9       O      0.742125000000     0.030650000000     0.363866666667     0.004782   
O9       O      0.742125000000     0.030650000000     0.697200000000     0.004782   
O9       O      0.742125000000     0.530650000000     0.030533333333     0.004782   
O9       O      0.742125000000     0.530650000000     0.363866666667     0.004782   
O9       O      0.742125000000     0.530650000000     0.697200000000     0.004782   
O9       O      0.992125000000     0.030650000000     0.030533333333     0.004782   
O9       O      0.992125000000     0.030650000000     0.363866666667     0.004782   
O9       O      0.992125000000     0.030650000000     0.697200000000     0.004782   
O9       O      0.992125000000     0.530650000000     0.030533333333     0.004782   
O9       O      0.992125000000     0.530650000000     0.363866666667     0.004782   
O9       O      0.992125000000     0.530650000000     0.697200000000     0.004782   
O10      O      0.182800000000     0.021405000000     0.325066666667     0.558541   
O10      O      0.182800000000     0.021405000000     0.658400000000     0.558541   
O10      O      0.182800000000     0.021405000000     0.991733333333     0.558541   
O10      O      0.182800000000     0.521405000000     0.325066666667     0.558541   
O10      O      0.182800000000     0.521405000000     0.658400000000     0.558541   
O10      O      0.182800000000     0.521405000000     0.991733333333     0.558541   
O10      O      0.432800000000     0.021405000000     0.325066666667     0.558541   
O10      O      0.432800000000     0.021405000000     0.658400000000     0.558541   
O10      O      0.432800000000     0.021405000000     0.991733333333     0.558541   
O10      O      0.432800000000     0.521405000000     0.325066666667     0.558541   
O10      O      0.432800000000     0.521405000000     0.658400000000     0.558541   
O10      O      0.432800000000     0.521405000000     0.991733333333     0.558541   
O10      O      0.682800000000     0.021405000000     0.325066666667     0.558541   
O10      O      0.682800000000     0.021405000000     0.658400000000     0.558541   
O10      O      0.682800000000     0.021405000000     0.991733333333     0.558541   
O10      O      0.682800000000     0.521405000000     0.325066666667     0.558541   
O10      O      0.682800000000     0.521405000000     0.658400000000     0.558541   
O10      O      0.682800000000     0.521405000000     0.991733333333     0.558541   
O10      O      0.932800000000     0.021405000000     0.325066666667     0.558541   
O10      O      0.932800000000     0.021405000000     0.658400000000     0.558541   
O10      O      0.932800000000     0.021405000000     0.991733333333     0.558541   
O10      O      0.932800000000     0.521405000000     0.325066666667     0.558541   
O10      O      0.932800000000     0.521405000000     0.658400000000     0.558541   
O10      O      0.932800000000     0.521405000000     0.991733333333     0.558541   
O11      O      0.230525000000     0.402955000000     0.053933333333     0.107208   
O11      O      0.230525000000     0.402955000000     0.387266666667     0.107208   
O11      O      0.230525000000     0.402955000000     0.720600000000     0.107208   
O11      O      0.230525000000     0.902955000000     0.053933333333     0.107208   
O11      O      0.230525000000     0.902955000000     0.387266666667     0.107208   
O11      O      0.230525000000     0.902955000000     0.720600000000     0.107208   
O11      O      0.480525000000     0.402955000000     0.053933333333     0.107208   
O11      O      0.480525000000     0.402955000000     0.387266666667     0.107208   
O11      O      0.480525000000     0.402955000000     0.720600000000     0.107208   
O11      O      0.480525000000     0.902955000000     0.053933333333     0.107208   
O11      O      0.480525000000     0.902955000000     0.387266666667     0.107208   
O11      O      0.480525000000     0.902955000000     0.720600000000     0.107208   
O11      O      0.730525000000     0.402955000000     0.053933333333     0.107208   
O11      O      0.730525000000     0.402955000000     0.387266666667     0.107208   
O11      O      0.730525000000     0.402955000000     0.720600000000     0.107208   
O11      O      0.730525000000     0.902955000000     0.053933333333     0.107208   
O11      O      0.730525000000     0.902955000000     0.387266666667     0.107208   
O11      O      0.730525000000     0.902955000000     0.720600000000     0.107208   
O11      O      0.980525000000     0.402955000000     0.053933333333     0.107208   
O11      O      0.980525000000     0.402955000000     0.387266666667     0.107208   
O11      O      0.980525000000     0.402955000000     0.720600000000     0.107208   
O11      O      0.980525000000     0.902955000000     0.053933333333     0.107208   
O11      O      0.980525000000     0.902955000000     0.387266666667     0.107208   
O11      O      0.980525000000     0.902955000000     0.720600000000     0.107208   
O12      O      0.015475000000     0.450560000000     0.083733333333    -0.184604   
O12      O      0.015475000000     0.450560000000     0.417066666667    -0.184604   
O12      O      0.015475000000     0.450560000000     0.750400000000    -0.184604   
O12      O      0.015475000000     0.950560000000     0.083733333333    -0.184604   
O12      O      0.015475000000     0.950560000000     0.417066666667    -0.184604   
O12      O      0.015475000000     0.950560000000     0.750400000000    -0.184604   
O12      O      0.265475000000     0.450560000000     0.083733333333    -0.184604   
O12      O      0.265475000000     0.450560000000     0.417066666667    -0.184604   
O12      O      0.265475000000     0.450560000000     0.750400000000    -0.184604   
O12      O      0.265475000000     0.950560000000     0.083733333333    -0.184604   
O12      O      0.265475000000     0.950560000000     0.417066666667    -0.184604   
O12      O      0.265475000000     0.950560000000     0.750400000000    -0.184604   
O12      O      0.515475000000     0.450560000000     0.083733333333    -0.184604   
O12      O      0.515475000000     0.450560000000     0.417066666667    -0.184604   
O12      O      0.515475000000     0.450560000000     0.750400000000    -0.184604   
O12      O      0.515475000000     0.950560000000     0.083733333333    -0.184604   
O12      O      0.515475000000     0.950560000000     0.417066666667    -0.184604   
O12      O      0.515475000000     0.950560000000     0.750400000000    -0.184604   
O12      O      0.765475000000     0.450560000000     0.083733333333    -0.184604   
O12      O      0.765475000000     0.450560000000     0.417066666667    -0.184604   
O12      O      0.765475000000     0.450560000000     0.750400000000    -0.184604   
O12      O      0.765475000000     0.950560000000     0.083733333333    -0.184604   
O12      O      0.765475000000     0.950560000000     0.417066666667    -0.184604   
O12      O      0.765475000000     0.950560000000     0.750400000000    -0.184604   
O13      O      0.007875000000     0.280650000000     0.136133333333     0.128751   
O13      O      0.007875000000     0.280650000000     0.469466666667     0.128751   
O13      O      0.007875000000     0.280650000000     0.802800000000     0.128751   
O13      O      0.007875000000     0.780650000000     0.136133333333     0.128751   
O13      O      0.007875000000     0.780650000000     0.469466666667     0.128751   
O13      O      0.007875000000     0.780650000000     0.802800000000     0.128751   
O13      O      0.257875000000     0.280650000000     0.136133333333     0.128751   
O13      O      0.257875000000     0.280650000000     0.469466666667     0.128751   
O13      O      0.257875000000     0.280650000000     0.802800000000     0.128751   
O13      O      0.257875000000     0.780650000000     0.136133333333     0.128751   
O13      O      0.257875000000     0.780650000000     0.469466666667     0.128751   
O13      O      0.257875000000     0.780650000000     0.802800000000     0.128751   
O13      O      0.507875000000     0.280650000000     0.136133333333     0.128751   
O13      O      0.507875000000     0.280650000000     0.469466666667     0.128751   
O13      O      0.507875000000     0.280650000000     0.802800000000     0.128751   
O13      O      0.507875000000     0.780650000000     0.136133333333     0.128751   
O13      O      0.507875000000     0.780650000000     0.469466666667     0.128751   
O13      O      0.507875000000     0.780650000000     0.802800000000     0.128751   
O13      O      0.757875000000     0.280650000000     0.136133333333     0.128751   
O13      O      0.757875000000     0.280650000000     0.469466666667     0.128751   
O13      O      0.757875000000     0.280650000000     0.802800000000     0.128751   
O13      O      0.757875000000     0.780650000000     0.136133333333     0.128751   
O13      O      0.757875000000     0.780650000000     0.469466666667     0.128751   
O13      O      0.757875000000     0.780650000000     0.802800000000     0.128751   
O14      O      0.067200000000     0.271405000000     0.174933333333    -0.18775    
O14      O      0.067200000000     0.271405000000     0.508266666667    -0.18775    
O14      O      0.067200000000     0.271405000000     0.841600000000    -0.18775    
O14      O      0.067200000000     0.771405000000     0.174933333333    -0.18775    
O14      O      0.067200000000     0.771405000000     0.508266666667    -0.18775    
O14      O      0.067200000000     0.771405000000     0.841600000000    -0.18775    
O14      O      0.317200000000     0.271405000000     0.174933333333    -0.18775    
O14      O      0.317200000000     0.271405000000     0.508266666667    -0.18775    
O14      O      0.317200000000     0.271405000000     0.841600000000    -0.18775    
O14      O      0.317200000000     0.771405000000     0.174933333333    -0.18775    
O14      O      0.317200000000     0.771405000000     0.508266666667    -0.18775    
O14      O      0.317200000000     0.771405000000     0.841600000000    -0.18775    
O14      O      0.567200000000     0.271405000000     0.174933333333    -0.18775    
O14      O      0.567200000000     0.271405000000     0.508266666667    -0.18775    
O14      O      0.567200000000     0.271405000000     0.841600000000    -0.18775    
O14      O      0.567200000000     0.771405000000     0.174933333333    -0.18775    
O14      O      0.567200000000     0.771405000000     0.508266666667    -0.18775    
O14      O      0.567200000000     0.771405000000     0.841600000000    -0.18775    
O14      O      0.817200000000     0.271405000000     0.174933333333    -0.18775    
O14      O      0.817200000000     0.271405000000     0.508266666667    -0.18775    
O14      O      0.817200000000     0.271405000000     0.841600000000    -0.18775    
O14      O      0.817200000000     0.771405000000     0.174933333333    -0.18775    
O14      O      0.817200000000     0.771405000000     0.508266666667    -0.18775    
O14      O      0.817200000000     0.771405000000     0.841600000000    -0.18775    
O15      O      0.019475000000     0.097045000000     0.279400000000     0.089898   
O15      O      0.019475000000     0.097045000000     0.612733333333     0.089898   
O15      O      0.019475000000     0.097045000000     0.946066666667     0.089898   
O15      O      0.019475000000     0.597045000000     0.279400000000     0.089898   
O15      O      0.019475000000     0.597045000000     0.612733333333     0.089898   
O15      O      0.019475000000     0.597045000000     0.946066666667     0.089898   
O15      O      0.269475000000     0.097045000000     0.279400000000     0.089898   
O15      O      0.269475000000     0.097045000000     0.612733333333     0.089898   
O15      O      0.269475000000     0.097045000000     0.946066666667     0.089898   
O15      O      0.269475000000     0.597045000000     0.279400000000     0.089898   
O15      O      0.269475000000     0.597045000000     0.612733333333     0.089898   
O15      O      0.269475000000     0.597045000000     0.946066666667     0.089898   
O15      O      0.519475000000     0.097045000000     0.279400000000     0.089898   
O15      O      0.519475000000     0.097045000000     0.612733333333     0.089898   
O15      O      0.519475000000     0.097045000000     0.946066666667     0.089898   
O15      O      0.519475000000     0.597045000000     0.279400000000     0.089898   
O15      O      0.519475000000     0.597045000000     0.612733333333     0.089898   
O15      O      0.519475000000     0.597045000000     0.946066666667     0.089898   
O15      O      0.769475000000     0.097045000000     0.279400000000     0.089898   
O15      O      0.769475000000     0.097045000000     0.612733333333     0.089898   
O15      O      0.769475000000     0.097045000000     0.946066666667     0.089898   
O15      O      0.769475000000     0.597045000000     0.279400000000     0.089898   
O15      O      0.769475000000     0.597045000000     0.612733333333     0.089898   
O15      O      0.769475000000     0.597045000000     0.946066666667     0.089898   
O16      O      0.230525000000     0.347045000000     0.220600000000     0.065046   
O16      O      0.230525000000     0.347045000000     0.553933333333     0.065046   
O16      O      0.230525000000     0.347045000000     0.887266666667     0.065046   
O16      O      0.230525000000     0.847045000000     0.220600000000     0.065046   
O16      O      0.230525000000     0.847045000000     0.553933333333     0.065046   
O16      O      0.230525000000     0.847045000000     0.887266666667     0.065046   
O16      O      0.480525000000     0.347045000000     0.220600000000     0.065046   
O16      O      0.480525000000     0.347045000000     0.553933333333     0.065046   
O16      O      0.480525000000     0.347045000000     0.887266666667     0.065046   
O16      O      0.480525000000     0.847045000000     0.220600000000     0.065046   
O16      O      0.480525000000     0.847045000000     0.553933333333     0.065046   
O16      O      0.480525000000     0.847045000000     0.887266666667     0.065046   
O16      O      0.730525000000     0.347045000000     0.220600000000     0.065046   
O16      O      0.730525000000     0.347045000000     0.553933333333     0.065046   
O16      O      0.730525000000     0.347045000000     0.887266666667     0.065046   
O16      O      0.730525000000     0.847045000000     0.220600000000     0.065046   
O16      O      0.730525000000     0.847045000000     0.553933333333     0.065046   
O16      O      0.730525000000     0.847045000000     0.887266666667     0.065046   
O16      O      0.980525000000     0.347045000000     0.220600000000     0.065046   
O16      O      0.980525000000     0.347045000000     0.553933333333     0.065046   
O16      O      0.980525000000     0.347045000000     0.887266666667     0.065046   
O16      O      0.980525000000     0.847045000000     0.220600000000     0.065046   
O16      O      0.980525000000     0.847045000000     0.553933333333     0.065046   
O16      O      0.980525000000     0.847045000000     0.887266666667     0.065046   


