data_ATIRUS_clean

_audit_creation_method RASPA-1.0
_audit_creation_date 2025-9-8
_audit_author_name ''

_cell_length_a    52.5822
_cell_length_b    40.7283
_cell_length_c    33.81
_cell_angle_alpha 90
_cell_angle_beta  92.443
_cell_angle_gamma 90
_cell_volume      72341.1

_symmetry_cell_setting          triclinic
_symmetry_space_group_name_Hall 'P 1'
_symmetry_space_group_name_H-M  'P 1'
_symmetry_Int_Tables_number     1

_symmetry_equiv_pos_as_xyz 'x,y,z'

loop_
_atom_site_label
_atom_site_type_symbol
_atom_site_fract_x
_atom_site_fract_y
_atom_site_fract_z
_atom_site_charge
Tb       Tb     0.448205000000     0.064383333333     0.197686000000     1.589      
C        C      0.410800000000     0.182366666667     0.186180000000     0.09       
H        H      0.428450000000     0.183666666667     0.189660000000     0.021      
C        C      0.399750000000     0.151600000000     0.186620000000    -0.137      
C        C      0.373300000000     0.149566666667     0.182140000000     0.111      
H        H      0.365150000000     0.129300000000     0.182080000000     0.001      
C        C      0.359320000000     0.178500000000     0.177760000000    -0.204      
C        C      0.372450000000     0.208100000000     0.176920000000     0.116      
H        H      0.363100000000     0.227333333333     0.173260000000     0.013      
C        C      0.416100000000     0.121533333333     0.191000000000     0.326      
C        C      0.330700000000     0.178733333333     0.172920000000     0.478      
N        N      0.397855000000     0.210400000000     0.181120000000    -0.146      
O        O      0.439285000000     0.125100000000     0.001460000000    -0.382      
O        O      0.406600000000     0.093600000000     0.184560000000    -0.382      
O        O      0.319025000000     0.153233333333     0.180820000000    -0.481      
O        O      0.320210000000     0.205166666667     0.161820000000    -0.465      
O        O      0.477725000000     0.046600000000     0.058140000000    -0.402      
O        O      0.492260000000     0.086833333333     0.015620000000    -0.404      
Tb       Tb     0.198205000000     0.231050000000     0.197686000000     1.587      
C        C      0.160800000000     0.015700000000     0.186180000000     0.089      
H        H      0.178450000000     0.017000000000     0.189660000000     0.018      
C        C      0.149750000000     0.318266666667     0.186620000000    -0.138      
C        C      0.123300000000     0.316233333333     0.182140000000     0.113      
H        H      0.115150000000     0.295966666667     0.182080000000     0.001      
C        C      0.109320000000     0.011833333333     0.177760000000    -0.205      
C        C      0.122450000000     0.041433333333     0.176920000000     0.116      
H        H      0.113100000000     0.060666666667     0.173260000000     0.013      
C        C      0.166100000000     0.288200000000     0.191000000000     0.33       
C        C      0.080700000000     0.012066666667     0.172920000000     0.475      
N        N      0.147855000000     0.043733333333     0.181120000000    -0.146      
O        O      0.189285000000     0.291766666667     0.001460000000    -0.388      
O        O      0.156600000000     0.260266666667     0.184560000000    -0.382      
O        O      0.069025000000     0.319900000000     0.180820000000    -0.479      
O        O      0.070210000000     0.038500000000     0.161820000000    -0.465      
O        O      0.227725000000     0.213266666667     0.058140000000    -0.44       
O        O      0.242260000000     0.253500000000     0.015620000000    -0.449      
Tb       Tb     0.051795000000     0.064383333333     0.102314000000     1.573      
C        C      0.089200000000     0.182366666667     0.113820000000     0.093      
H        H      0.071550000000     0.183666666667     0.110340000000     0.016      
C        C      0.100250000000     0.151600000000     0.113380000000    -0.141      
C        C      0.126700000000     0.149566666667     0.117860000000     0.113      
H        H      0.134850000000     0.129300000000     0.117920000000     0          
C        C      0.140680000000     0.178500000000     0.122240000000    -0.205      
C        C      0.127550000000     0.208100000000     0.123080000000     0.117      
H        H      0.136900000000     0.227333333333     0.126740000000     0.013      
C        C      0.083900000000     0.121533333333     0.109000000000     0.33       
C        C      0.169300000000     0.178733333333     0.127080000000     0.478      
N        N      0.102145000000     0.210400000000     0.118880000000    -0.147      
O        O      0.060715000000     0.125100000000     0.098540000000    -0.391      
O        O      0.093400000000     0.093600000000     0.115440000000    -0.382      
O        O      0.180975000000     0.153233333333     0.119180000000    -0.481      
O        O      0.179790000000     0.205166666667     0.138180000000    -0.465      
O        O      0.022275000000     0.046600000000     0.041860000000    -0.431      
O        O      0.007740000000     0.086833333333     0.084380000000    -0.445      
Tb       Tb     0.301795000000     0.231050000000     0.102314000000     1.587      
C        C      0.339200000000     0.015700000000     0.113820000000     0.091      
H        H      0.321550000000     0.017000000000     0.110340000000     0.018      
C        C      0.350250000000     0.318266666667     0.113380000000    -0.139      
C        C      0.376700000000     0.316233333333     0.117860000000     0.112      
H        H      0.384850000000     0.295966666667     0.117920000000     0          
C        C      0.390680000000     0.011833333333     0.122240000000    -0.205      
C        C      0.377550000000     0.041433333333     0.123080000000     0.116      
H        H      0.386900000000     0.060666666667     0.126740000000     0.013      
C        C      0.333900000000     0.288200000000     0.109000000000     0.33       
C        C      0.419300000000     0.012066666667     0.127080000000     0.477      
N        N      0.352145000000     0.043733333333     0.118880000000    -0.147      
O        O      0.310715000000     0.291766666667     0.098540000000    -0.388      
O        O      0.343400000000     0.260266666667     0.115440000000    -0.383      
O        O      0.430975000000     0.319900000000     0.119180000000    -0.481      
O        O      0.429790000000     0.038500000000     0.138180000000    -0.463      
O        O      0.272275000000     0.213266666667     0.041860000000    -0.44       
O        O      0.257740000000     0.253500000000     0.084380000000    -0.449      
Tb       Tb     0.051795000000     0.268950000000     0.002314000000     1.567      
C        C      0.089200000000     0.150966666667     0.013820000000     0.092      
H        H      0.071550000000     0.149666666667     0.010340000000     0.015      
C        C      0.100250000000     0.181733333333     0.013380000000    -0.14       
C        C      0.126700000000     0.183766666667     0.017860000000     0.112      
H        H      0.134850000000     0.204033333333     0.017920000000     0          
C        C      0.140680000000     0.154833333333     0.022240000000    -0.205      
C        C      0.127550000000     0.125233333333     0.023080000000     0.117      
H        H      0.136900000000     0.106000000000     0.026740000000     0.013      
C        C      0.083900000000     0.211800000000     0.009000000000     0.328      
C        C      0.169300000000     0.154600000000     0.027080000000     0.478      
N        N      0.102145000000     0.122933333333     0.018880000000    -0.147      
O        O      0.060715000000     0.208233333333     0.198540000000    -0.388      
O        O      0.093400000000     0.239733333333     0.015440000000    -0.382      
O        O      0.180975000000     0.180100000000     0.019180000000    -0.481      
O        O      0.179790000000     0.128166666667     0.038180000000    -0.465      
O        O      0.022275000000     0.286733333333     0.141860000000    -0.43       
O        O      0.007740000000     0.246500000000     0.184380000000    -0.443      
Tb       Tb     0.301795000000     0.102283333333     0.002314000000     1.587      
C        C      0.339200000000     0.317633333333     0.013820000000     0.089      
H        H      0.321550000000     0.316333333333     0.010340000000     0.018      
C        C      0.350250000000     0.015066666667     0.013380000000    -0.138      
C        C      0.376700000000     0.017100000000     0.017860000000     0.113      
H        H      0.384850000000     0.037366666667     0.017920000000     0.001      
C        C      0.390680000000     0.321500000000     0.022240000000    -0.206      
C        C      0.377550000000     0.291900000000     0.023080000000     0.116      
H        H      0.386900000000     0.272666666667     0.026740000000     0.013      
C        C      0.333900000000     0.045133333333     0.009000000000     0.33       
C        C      0.419300000000     0.321266666667     0.027080000000     0.476      
N        N      0.352145000000     0.289600000000     0.018880000000    -0.147      
O        O      0.310715000000     0.041566666667     0.198540000000    -0.388      
O        O      0.343400000000     0.073066666667     0.015440000000    -0.382      
O        O      0.430975000000     0.013433333333     0.019180000000    -0.478      
O        O      0.429790000000     0.294833333333     0.038180000000    -0.463      
O        O      0.272275000000     0.120066666667     0.141860000000    -0.44       
O        O      0.257740000000     0.079833333333     0.184380000000    -0.449      
Tb       Tb     0.448205000000     0.268950000000     0.097686000000     1.595      
C        C      0.410800000000     0.150966666667     0.086180000000     0.091      
H        H      0.428450000000     0.149666666667     0.089660000000     0.021      
C        C      0.399750000000     0.181733333333     0.086620000000    -0.138      
C        C      0.373300000000     0.183766666667     0.082140000000     0.112      
H        H      0.365150000000     0.204033333333     0.082080000000     0.001      
C        C      0.359320000000     0.154833333333     0.077760000000    -0.204      
C        C      0.372450000000     0.125233333333     0.076920000000     0.116      
H        H      0.363100000000     0.106000000000     0.073260000000     0.013      
C        C      0.416100000000     0.211800000000     0.091000000000     0.329      
C        C      0.330700000000     0.154600000000     0.072920000000     0.478      
N        N      0.397855000000     0.122933333333     0.081120000000    -0.146      
O        O      0.439285000000     0.208233333333     0.101460000000    -0.385      
O        O      0.406600000000     0.239733333333     0.084560000000    -0.383      
O        O      0.319025000000     0.180100000000     0.080820000000    -0.481      
O        O      0.320210000000     0.128166666667     0.061820000000    -0.465      
O        O      0.477725000000     0.286733333333     0.158140000000    -0.404      
O        O      0.492260000000     0.246500000000     0.115620000000    -0.407      
Tb       Tb     0.198205000000     0.102283333333     0.097686000000     1.587      
C        C      0.160800000000     0.317633333333     0.086180000000     0.091      
H        H      0.178450000000     0.316333333333     0.089660000000     0.018      
C        C      0.149750000000     0.015066666667     0.086620000000    -0.139      
C        C      0.123300000000     0.017100000000     0.082140000000     0.112      
H        H      0.115150000000     0.037366666667     0.082080000000     0.001      
C        C      0.109320000000     0.321500000000     0.077760000000    -0.204      
C        C      0.122450000000     0.291900000000     0.076920000000     0.116      
H        H      0.113100000000     0.272666666667     0.073260000000     0.013      
C        C      0.166100000000     0.045133333333     0.091000000000     0.33       
C        C      0.080700000000     0.321266666667     0.072920000000     0.476      
N        N      0.147855000000     0.289600000000     0.081120000000    -0.147      
O        O      0.189285000000     0.041566666667     0.101460000000    -0.388      
O        O      0.156600000000     0.073066666667     0.084560000000    -0.382      
O        O      0.069025000000     0.013433333333     0.080820000000    -0.481      
O        O      0.070210000000     0.294833333333     0.061820000000    -0.465      
O        O      0.227725000000     0.120066666667     0.158140000000    -0.44       
O        O      0.242260000000     0.079833333333     0.115620000000    -0.449      
S        S      0.000000000000     0.067106666667     0.050000000000     0.612      
S        S      0.250000000000     0.233773333333     0.050000000000     0.701      
S        S      0.000000000000     0.266226666667     0.150000000000     0.615      
S        S      0.250000000000     0.099560000000     0.150000000000     0.701      
Tb       Tb     0.448205000000     0.064383333333     0.397686000000     1.589      
C        C      0.410800000000     0.182366666667     0.386180000000     0.09       
H        H      0.428450000000     0.183666666667     0.389660000000     0.021      
C        C      0.399750000000     0.151600000000     0.386620000000    -0.137      
C        C      0.373300000000     0.149566666667     0.382140000000     0.111      
H        H      0.365150000000     0.129300000000     0.382080000000     0.001      
C        C      0.359320000000     0.178500000000     0.377760000000    -0.204      
C        C      0.372450000000     0.208100000000     0.376920000000     0.116      
H        H      0.363100000000     0.227333333333     0.373260000000     0.013      
C        C      0.416100000000     0.121533333333     0.391000000000     0.326      
C        C      0.330700000000     0.178733333333     0.372920000000     0.478      
N        N      0.397855000000     0.210400000000     0.381120000000    -0.146      
O        O      0.439285000000     0.125100000000     0.201460000000    -0.382      
O        O      0.406600000000     0.093600000000     0.384560000000    -0.382      
O        O      0.319025000000     0.153233333333     0.380820000000    -0.481      
O        O      0.320210000000     0.205166666667     0.361820000000    -0.465      
O        O      0.477725000000     0.046600000000     0.258140000000    -0.402      
O        O      0.492260000000     0.086833333333     0.215620000000    -0.404      
Tb       Tb     0.198205000000     0.231050000000     0.397686000000     1.587      
C        C      0.160800000000     0.015700000000     0.386180000000     0.089      
H        H      0.178450000000     0.017000000000     0.389660000000     0.018      
C        C      0.149750000000     0.318266666667     0.386620000000    -0.138      
C        C      0.123300000000     0.316233333333     0.382140000000     0.113      
H        H      0.115150000000     0.295966666667     0.382080000000     0.001      
C        C      0.109320000000     0.011833333333     0.377760000000    -0.205      
C        C      0.122450000000     0.041433333333     0.376920000000     0.116      
H        H      0.113100000000     0.060666666667     0.373260000000     0.013      
C        C      0.166100000000     0.288200000000     0.391000000000     0.33       
C        C      0.080700000000     0.012066666667     0.372920000000     0.475      
N        N      0.147855000000     0.043733333333     0.381120000000    -0.146      
O        O      0.189285000000     0.291766666667     0.201460000000    -0.388      
O        O      0.156600000000     0.260266666667     0.384560000000    -0.382      
O        O      0.069025000000     0.319900000000     0.380820000000    -0.479      
O        O      0.070210000000     0.038500000000     0.361820000000    -0.465      
O        O      0.227725000000     0.213266666667     0.258140000000    -0.44       
O        O      0.242260000000     0.253500000000     0.215620000000    -0.449      
Tb       Tb     0.051795000000     0.064383333333     0.302314000000     1.573      
C        C      0.089200000000     0.182366666667     0.313820000000     0.093      
H        H      0.071550000000     0.183666666667     0.310340000000     0.016      
C        C      0.100250000000     0.151600000000     0.313380000000    -0.141      
C        C      0.126700000000     0.149566666667     0.317860000000     0.113      
H        H      0.134850000000     0.129300000000     0.317920000000     0          
C        C      0.140680000000     0.178500000000     0.322240000000    -0.205      
C        C      0.127550000000     0.208100000000     0.323080000000     0.117      
H        H      0.136900000000     0.227333333333     0.326740000000     0.013      
C        C      0.083900000000     0.121533333333     0.309000000000     0.33       
C        C      0.169300000000     0.178733333333     0.327080000000     0.478      
N        N      0.102145000000     0.210400000000     0.318880000000    -0.147      
O        O      0.060715000000     0.125100000000     0.298540000000    -0.391      
O        O      0.093400000000     0.093600000000     0.315440000000    -0.382      
O        O      0.180975000000     0.153233333333     0.319180000000    -0.481      
O        O      0.179790000000     0.205166666667     0.338180000000    -0.465      
O        O      0.022275000000     0.046600000000     0.241860000000    -0.431      
O        O      0.007740000000     0.086833333333     0.284380000000    -0.445      
Tb       Tb     0.301795000000     0.231050000000     0.302314000000     1.587      
C        C      0.339200000000     0.015700000000     0.313820000000     0.091      
H        H      0.321550000000     0.017000000000     0.310340000000     0.018      
C        C      0.350250000000     0.318266666667     0.313380000000    -0.139      
C        C      0.376700000000     0.316233333333     0.317860000000     0.112      
H        H      0.384850000000     0.295966666667     0.317920000000     0          
C        C      0.390680000000     0.011833333333     0.322240000000    -0.205      
C        C      0.377550000000     0.041433333333     0.323080000000     0.116      
H        H      0.386900000000     0.060666666667     0.326740000000     0.013      
C        C      0.333900000000     0.288200000000     0.309000000000     0.33       
C        C      0.419300000000     0.012066666667     0.327080000000     0.477      
N        N      0.352145000000     0.043733333333     0.318880000000    -0.147      
O        O      0.310715000000     0.291766666667     0.298540000000    -0.388      
O        O      0.343400000000     0.260266666667     0.315440000000    -0.383      
O        O      0.430975000000     0.319900000000     0.319180000000    -0.481      
O        O      0.429790000000     0.038500000000     0.338180000000    -0.463      
O        O      0.272275000000     0.213266666667     0.241860000000    -0.44       
O        O      0.257740000000     0.253500000000     0.284380000000    -0.449      
Tb       Tb     0.051795000000     0.268950000000     0.202314000000     1.567      
C        C      0.089200000000     0.150966666667     0.213820000000     0.092      
H        H      0.071550000000     0.149666666667     0.210340000000     0.015      
C        C      0.100250000000     0.181733333333     0.213380000000    -0.14       
C        C      0.126700000000     0.183766666667     0.217860000000     0.112      
H        H      0.134850000000     0.204033333333     0.217920000000     0          
C        C      0.140680000000     0.154833333333     0.222240000000    -0.205      
C        C      0.127550000000     0.125233333333     0.223080000000     0.117      
H        H      0.136900000000     0.106000000000     0.226740000000     0.013      
C        C      0.083900000000     0.211800000000     0.209000000000     0.328      
C        C      0.169300000000     0.154600000000     0.227080000000     0.478      
N        N      0.102145000000     0.122933333333     0.218880000000    -0.147      
O        O      0.060715000000     0.208233333333     0.398540000000    -0.388      
O        O      0.093400000000     0.239733333333     0.215440000000    -0.382      
O        O      0.180975000000     0.180100000000     0.219180000000    -0.481      
O        O      0.179790000000     0.128166666667     0.238180000000    -0.465      
O        O      0.022275000000     0.286733333333     0.341860000000    -0.43       
O        O      0.007740000000     0.246500000000     0.384380000000    -0.443      
Tb       Tb     0.301795000000     0.102283333333     0.202314000000     1.587      
C        C      0.339200000000     0.317633333333     0.213820000000     0.089      
H        H      0.321550000000     0.316333333333     0.210340000000     0.018      
C        C      0.350250000000     0.015066666667     0.213380000000    -0.138      
C        C      0.376700000000     0.017100000000     0.217860000000     0.113      
H        H      0.384850000000     0.037366666667     0.217920000000     0.001      
C        C      0.390680000000     0.321500000000     0.222240000000    -0.206      
C        C      0.377550000000     0.291900000000     0.223080000000     0.116      
H        H      0.386900000000     0.272666666667     0.226740000000     0.013      
C        C      0.333900000000     0.045133333333     0.209000000000     0.33       
C        C      0.419300000000     0.321266666667     0.227080000000     0.476      
N        N      0.352145000000     0.289600000000     0.218880000000    -0.147      
O        O      0.310715000000     0.041566666667     0.398540000000    -0.388      
O        O      0.343400000000     0.073066666667     0.215440000000    -0.382      
O        O      0.430975000000     0.013433333333     0.219180000000    -0.478      
O        O      0.429790000000     0.294833333333     0.238180000000    -0.463      
O        O      0.272275000000     0.120066666667     0.341860000000    -0.44       
O        O      0.257740000000     0.079833333333     0.384380000000    -0.449      
Tb       Tb     0.448205000000     0.268950000000     0.297686000000     1.595      
C        C      0.410800000000     0.150966666667     0.286180000000     0.091      
H        H      0.428450000000     0.149666666667     0.289660000000     0.021      
C        C      0.399750000000     0.181733333333     0.286620000000    -0.138      
C        C      0.373300000000     0.183766666667     0.282140000000     0.112      
H        H      0.365150000000     0.204033333333     0.282080000000     0.001      
C        C      0.359320000000     0.154833333333     0.277760000000    -0.204      
C        C      0.372450000000     0.125233333333     0.276920000000     0.116      
H        H      0.363100000000     0.106000000000     0.273260000000     0.013      
C        C      0.416100000000     0.211800000000     0.291000000000     0.329      
C        C      0.330700000000     0.154600000000     0.272920000000     0.478      
N        N      0.397855000000     0.122933333333     0.281120000000    -0.146      
O        O      0.439285000000     0.208233333333     0.301460000000    -0.385      
O        O      0.406600000000     0.239733333333     0.284560000000    -0.383      
O        O      0.319025000000     0.180100000000     0.280820000000    -0.481      
O        O      0.320210000000     0.128166666667     0.261820000000    -0.465      
O        O      0.477725000000     0.286733333333     0.358140000000    -0.404      
O        O      0.492260000000     0.246500000000     0.315620000000    -0.407      
Tb       Tb     0.198205000000     0.102283333333     0.297686000000     1.587      
C        C      0.160800000000     0.317633333333     0.286180000000     0.091      
H        H      0.178450000000     0.316333333333     0.289660000000     0.018      
C        C      0.149750000000     0.015066666667     0.286620000000    -0.139      
C        C      0.123300000000     0.017100000000     0.282140000000     0.112      
H        H      0.115150000000     0.037366666667     0.282080000000     0.001      
C        C      0.109320000000     0.321500000000     0.277760000000    -0.204      
C        C      0.122450000000     0.291900000000     0.276920000000     0.116      
H        H      0.113100000000     0.272666666667     0.273260000000     0.013      
C        C      0.166100000000     0.045133333333     0.291000000000     0.33       
C        C      0.080700000000     0.321266666667     0.272920000000     0.476      
N        N      0.147855000000     0.289600000000     0.281120000000    -0.147      
O        O      0.189285000000     0.041566666667     0.301460000000    -0.388      
O        O      0.156600000000     0.073066666667     0.284560000000    -0.382      
O        O      0.069025000000     0.013433333333     0.280820000000    -0.481      
O        O      0.070210000000     0.294833333333     0.261820000000    -0.465      
O        O      0.227725000000     0.120066666667     0.358140000000    -0.44       
O        O      0.242260000000     0.079833333333     0.315620000000    -0.449      
S        S      0.000000000000     0.067106666667     0.250000000000     0.612      
S        S      0.250000000000     0.233773333333     0.250000000000     0.701      
S        S      0.000000000000     0.266226666667     0.350000000000     0.615      
S        S      0.250000000000     0.099560000000     0.350000000000     0.701      
Tb       Tb     0.448205000000     0.064383333333     0.597686000000     1.589      
C        C      0.410800000000     0.182366666667     0.586180000000     0.09       
H        H      0.428450000000     0.183666666667     0.589660000000     0.021      
C        C      0.399750000000     0.151600000000     0.586620000000    -0.137      
C        C      0.373300000000     0.149566666667     0.582140000000     0.111      
H        H      0.365150000000     0.129300000000     0.582080000000     0.001      
C        C      0.359320000000     0.178500000000     0.577760000000    -0.204      
C        C      0.372450000000     0.208100000000     0.576920000000     0.116      
H        H      0.363100000000     0.227333333333     0.573260000000     0.013      
C        C      0.416100000000     0.121533333333     0.591000000000     0.326      
C        C      0.330700000000     0.178733333333     0.572920000000     0.478      
N        N      0.397855000000     0.210400000000     0.581120000000    -0.146      
O        O      0.439285000000     0.125100000000     0.401460000000    -0.382      
O        O      0.406600000000     0.093600000000     0.584560000000    -0.382      
O        O      0.319025000000     0.153233333333     0.580820000000    -0.481      
O        O      0.320210000000     0.205166666667     0.561820000000    -0.465      
O        O      0.477725000000     0.046600000000     0.458140000000    -0.402      
O        O      0.492260000000     0.086833333333     0.415620000000    -0.404      
Tb       Tb     0.198205000000     0.231050000000     0.597686000000     1.587      
C        C      0.160800000000     0.015700000000     0.586180000000     0.089      
H        H      0.178450000000     0.017000000000     0.589660000000     0.018      
C        C      0.149750000000     0.318266666667     0.586620000000    -0.138      
C        C      0.123300000000     0.316233333333     0.582140000000     0.113      
H        H      0.115150000000     0.295966666667     0.582080000000     0.001      
C        C      0.109320000000     0.011833333333     0.577760000000    -0.205      
C        C      0.122450000000     0.041433333333     0.576920000000     0.116      
H        H      0.113100000000     0.060666666667     0.573260000000     0.013      
C        C      0.166100000000     0.288200000000     0.591000000000     0.33       
C        C      0.080700000000     0.012066666667     0.572920000000     0.475      
N        N      0.147855000000     0.043733333333     0.581120000000    -0.146      
O        O      0.189285000000     0.291766666667     0.401460000000    -0.388      
O        O      0.156600000000     0.260266666667     0.584560000000    -0.382      
O        O      0.069025000000     0.319900000000     0.580820000000    -0.479      
O        O      0.070210000000     0.038500000000     0.561820000000    -0.465      
O        O      0.227725000000     0.213266666667     0.458140000000    -0.44       
O        O      0.242260000000     0.253500000000     0.415620000000    -0.449      
Tb       Tb     0.051795000000     0.064383333333     0.502314000000     1.573      
C        C      0.089200000000     0.182366666667     0.513820000000     0.093      
H        H      0.071550000000     0.183666666667     0.510340000000     0.016      
C        C      0.100250000000     0.151600000000     0.513380000000    -0.141      
C        C      0.126700000000     0.149566666667     0.517860000000     0.113      
H        H      0.134850000000     0.129300000000     0.517920000000     0          
C        C      0.140680000000     0.178500000000     0.522240000000    -0.205      
C        C      0.127550000000     0.208100000000     0.523080000000     0.117      
H        H      0.136900000000     0.227333333333     0.526740000000     0.013      
C        C      0.083900000000     0.121533333333     0.509000000000     0.33       
C        C      0.169300000000     0.178733333333     0.527080000000     0.478      
N        N      0.102145000000     0.210400000000     0.518880000000    -0.147      
O        O      0.060715000000     0.125100000000     0.498540000000    -0.391      
O        O      0.093400000000     0.093600000000     0.515440000000    -0.382      
O        O      0.180975000000     0.153233333333     0.519180000000    -0.481      
O        O      0.179790000000     0.205166666667     0.538180000000    -0.465      
O        O      0.022275000000     0.046600000000     0.441860000000    -0.431      
O        O      0.007740000000     0.086833333333     0.484380000000    -0.445      
Tb       Tb     0.301795000000     0.231050000000     0.502314000000     1.587      
C        C      0.339200000000     0.015700000000     0.513820000000     0.091      
H        H      0.321550000000     0.017000000000     0.510340000000     0.018      
C        C      0.350250000000     0.318266666667     0.513380000000    -0.139      
C        C      0.376700000000     0.316233333333     0.517860000000     0.112      
H        H      0.384850000000     0.295966666667     0.517920000000     0          
C        C      0.390680000000     0.011833333333     0.522240000000    -0.205      
C        C      0.377550000000     0.041433333333     0.523080000000     0.116      
H        H      0.386900000000     0.060666666667     0.526740000000     0.013      
C        C      0.333900000000     0.288200000000     0.509000000000     0.33       
C        C      0.419300000000     0.012066666667     0.527080000000     0.477      
N        N      0.352145000000     0.043733333333     0.518880000000    -0.147      
O        O      0.310715000000     0.291766666667     0.498540000000    -0.388      
O        O      0.343400000000     0.260266666667     0.515440000000    -0.383      
O        O      0.430975000000     0.319900000000     0.519180000000    -0.481      
O        O      0.429790000000     0.038500000000     0.538180000000    -0.463      
O        O      0.272275000000     0.213266666667     0.441860000000    -0.44       
O        O      0.257740000000     0.253500000000     0.484380000000    -0.449      
Tb       Tb     0.051795000000     0.268950000000     0.402314000000     1.567      
C        C      0.089200000000     0.150966666667     0.413820000000     0.092      
H        H      0.071550000000     0.149666666667     0.410340000000     0.015      
C        C      0.100250000000     0.181733333333     0.413380000000    -0.14       
C        C      0.126700000000     0.183766666667     0.417860000000     0.112      
H        H      0.134850000000     0.204033333333     0.417920000000     0          
C        C      0.140680000000     0.154833333333     0.422240000000    -0.205      
C        C      0.127550000000     0.125233333333     0.423080000000     0.117      
H        H      0.136900000000     0.106000000000     0.426740000000     0.013      
C        C      0.083900000000     0.211800000000     0.409000000000     0.328      
C        C      0.169300000000     0.154600000000     0.427080000000     0.478      
N        N      0.102145000000     0.122933333333     0.418880000000    -0.147      
O        O      0.060715000000     0.208233333333     0.598540000000    -0.388      
O        O      0.093400000000     0.239733333333     0.415440000000    -0.382      
O        O      0.180975000000     0.180100000000     0.419180000000    -0.481      
O        O      0.179790000000     0.128166666667     0.438180000000    -0.465      
O        O      0.022275000000     0.286733333333     0.541860000000    -0.43       
O        O      0.007740000000     0.246500000000     0.584380000000    -0.443      
Tb       Tb     0.301795000000     0.102283333333     0.402314000000     1.587      
C        C      0.339200000000     0.317633333333     0.413820000000     0.089      
H        H      0.321550000000     0.316333333333     0.410340000000     0.018      
C        C      0.350250000000     0.015066666667     0.413380000000    -0.138      
C        C      0.376700000000     0.017100000000     0.417860000000     0.113      
H        H      0.384850000000     0.037366666667     0.417920000000     0.001      
C        C      0.390680000000     0.321500000000     0.422240000000    -0.206      
C        C      0.377550000000     0.291900000000     0.423080000000     0.116      
H        H      0.386900000000     0.272666666667     0.426740000000     0.013      
C        C      0.333900000000     0.045133333333     0.409000000000     0.33       
C        C      0.419300000000     0.321266666667     0.427080000000     0.476      
N        N      0.352145000000     0.289600000000     0.418880000000    -0.147      
O        O      0.310715000000     0.041566666667     0.598540000000    -0.388      
O        O      0.343400000000     0.073066666667     0.415440000000    -0.382      
O        O      0.430975000000     0.013433333333     0.419180000000    -0.478      
O        O      0.429790000000     0.294833333333     0.438180000000    -0.463      
O        O      0.272275000000     0.120066666667     0.541860000000    -0.44       
O        O      0.257740000000     0.079833333333     0.584380000000    -0.449      
Tb       Tb     0.448205000000     0.268950000000     0.497686000000     1.595      
C        C      0.410800000000     0.150966666667     0.486180000000     0.091      
H        H      0.428450000000     0.149666666667     0.489660000000     0.021      
C        C      0.399750000000     0.181733333333     0.486620000000    -0.138      
C        C      0.373300000000     0.183766666667     0.482140000000     0.112      
H        H      0.365150000000     0.204033333333     0.482080000000     0.001      
C        C      0.359320000000     0.154833333333     0.477760000000    -0.204      
C        C      0.372450000000     0.125233333333     0.476920000000     0.116      
H        H      0.363100000000     0.106000000000     0.473260000000     0.013      
C        C      0.416100000000     0.211800000000     0.491000000000     0.329      
C        C      0.330700000000     0.154600000000     0.472920000000     0.478      
N        N      0.397855000000     0.122933333333     0.481120000000    -0.146      
O        O      0.439285000000     0.208233333333     0.501460000000    -0.385      
O        O      0.406600000000     0.239733333333     0.484560000000    -0.383      
O        O      0.319025000000     0.180100000000     0.480820000000    -0.481      
O        O      0.320210000000     0.128166666667     0.461820000000    -0.465      
O        O      0.477725000000     0.286733333333     0.558140000000    -0.404      
O        O      0.492260000000     0.246500000000     0.515620000000    -0.407      
Tb       Tb     0.198205000000     0.102283333333     0.497686000000     1.587      
C        C      0.160800000000     0.317633333333     0.486180000000     0.091      
H        H      0.178450000000     0.316333333333     0.489660000000     0.018      
C        C      0.149750000000     0.015066666667     0.486620000000    -0.139      
C        C      0.123300000000     0.017100000000     0.482140000000     0.112      
H        H      0.115150000000     0.037366666667     0.482080000000     0.001      
C        C      0.109320000000     0.321500000000     0.477760000000    -0.204      
C        C      0.122450000000     0.291900000000     0.476920000000     0.116      
H        H      0.113100000000     0.272666666667     0.473260000000     0.013      
C        C      0.166100000000     0.045133333333     0.491000000000     0.33       
C        C      0.080700000000     0.321266666667     0.472920000000     0.476      
N        N      0.147855000000     0.289600000000     0.481120000000    -0.147      
O        O      0.189285000000     0.041566666667     0.501460000000    -0.388      
O        O      0.156600000000     0.073066666667     0.484560000000    -0.382      
O        O      0.069025000000     0.013433333333     0.480820000000    -0.481      
O        O      0.070210000000     0.294833333333     0.461820000000    -0.465      
O        O      0.227725000000     0.120066666667     0.558140000000    -0.44       
O        O      0.242260000000     0.079833333333     0.515620000000    -0.449      
S        S      0.000000000000     0.067106666667     0.450000000000     0.612      
S        S      0.250000000000     0.233773333333     0.450000000000     0.701      
S        S      0.000000000000     0.266226666667     0.550000000000     0.615      
S        S      0.250000000000     0.099560000000     0.550000000000     0.701      
Tb       Tb     0.448205000000     0.064383333333     0.797686000000     1.589      
C        C      0.410800000000     0.182366666667     0.786180000000     0.09       
H        H      0.428450000000     0.183666666667     0.789660000000     0.021      
C        C      0.399750000000     0.151600000000     0.786620000000    -0.137      
C        C      0.373300000000     0.149566666667     0.782140000000     0.111      
H        H      0.365150000000     0.129300000000     0.782080000000     0.001      
C        C      0.359320000000     0.178500000000     0.777760000000    -0.204      
C        C      0.372450000000     0.208100000000     0.776920000000     0.116      
H        H      0.363100000000     0.227333333333     0.773260000000     0.013      
C        C      0.416100000000     0.121533333333     0.791000000000     0.326      
C        C      0.330700000000     0.178733333333     0.772920000000     0.478      
N        N      0.397855000000     0.210400000000     0.781120000000    -0.146      
O        O      0.439285000000     0.125100000000     0.601460000000    -0.382      
O        O      0.406600000000     0.093600000000     0.784560000000    -0.382      
O        O      0.319025000000     0.153233333333     0.780820000000    -0.481      
O        O      0.320210000000     0.205166666667     0.761820000000    -0.465      
O        O      0.477725000000     0.046600000000     0.658140000000    -0.402      
O        O      0.492260000000     0.086833333333     0.615620000000    -0.404      
Tb       Tb     0.198205000000     0.231050000000     0.797686000000     1.587      
C        C      0.160800000000     0.015700000000     0.786180000000     0.089      
H        H      0.178450000000     0.017000000000     0.789660000000     0.018      
C        C      0.149750000000     0.318266666667     0.786620000000    -0.138      
C        C      0.123300000000     0.316233333333     0.782140000000     0.113      
H        H      0.115150000000     0.295966666667     0.782080000000     0.001      
C        C      0.109320000000     0.011833333333     0.777760000000    -0.205      
C        C      0.122450000000     0.041433333333     0.776920000000     0.116      
H        H      0.113100000000     0.060666666667     0.773260000000     0.013      
C        C      0.166100000000     0.288200000000     0.791000000000     0.33       
C        C      0.080700000000     0.012066666667     0.772920000000     0.475      
N        N      0.147855000000     0.043733333333     0.781120000000    -0.146      
O        O      0.189285000000     0.291766666667     0.601460000000    -0.388      
O        O      0.156600000000     0.260266666667     0.784560000000    -0.382      
O        O      0.069025000000     0.319900000000     0.780820000000    -0.479      
O        O      0.070210000000     0.038500000000     0.761820000000    -0.465      
O        O      0.227725000000     0.213266666667     0.658140000000    -0.44       
O        O      0.242260000000     0.253500000000     0.615620000000    -0.449      
Tb       Tb     0.051795000000     0.064383333333     0.702314000000     1.573      
C        C      0.089200000000     0.182366666667     0.713820000000     0.093      
H        H      0.071550000000     0.183666666667     0.710340000000     0.016      
C        C      0.100250000000     0.151600000000     0.713380000000    -0.141      
C        C      0.126700000000     0.149566666667     0.717860000000     0.113      
H        H      0.134850000000     0.129300000000     0.717920000000     0          
C        C      0.140680000000     0.178500000000     0.722240000000    -0.205      
C        C      0.127550000000     0.208100000000     0.723080000000     0.117      
H        H      0.136900000000     0.227333333333     0.726740000000     0.013      
C        C      0.083900000000     0.121533333333     0.709000000000     0.33       
C        C      0.169300000000     0.178733333333     0.727080000000     0.478      
N        N      0.102145000000     0.210400000000     0.718880000000    -0.147      
O        O      0.060715000000     0.125100000000     0.698540000000    -0.391      
O        O      0.093400000000     0.093600000000     0.715440000000    -0.382      
O        O      0.180975000000     0.153233333333     0.719180000000    -0.481      
O        O      0.179790000000     0.205166666667     0.738180000000    -0.465      
O        O      0.022275000000     0.046600000000     0.641860000000    -0.431      
O        O      0.007740000000     0.086833333333     0.684380000000    -0.445      
Tb       Tb     0.301795000000     0.231050000000     0.702314000000     1.587      
C        C      0.339200000000     0.015700000000     0.713820000000     0.091      
H        H      0.321550000000     0.017000000000     0.710340000000     0.018      
C        C      0.350250000000     0.318266666667     0.713380000000    -0.139      
C        C      0.376700000000     0.316233333333     0.717860000000     0.112      
H        H      0.384850000000     0.295966666667     0.717920000000     0          
C        C      0.390680000000     0.011833333333     0.722240000000    -0.205      
C        C      0.377550000000     0.041433333333     0.723080000000     0.116      
H        H      0.386900000000     0.060666666667     0.726740000000     0.013      
C        C      0.333900000000     0.288200000000     0.709000000000     0.33       
C        C      0.419300000000     0.012066666667     0.727080000000     0.477      
N        N      0.352145000000     0.043733333333     0.718880000000    -0.147      
O        O      0.310715000000     0.291766666667     0.698540000000    -0.388      
O        O      0.343400000000     0.260266666667     0.715440000000    -0.383      
O        O      0.430975000000     0.319900000000     0.719180000000    -0.481      
O        O      0.429790000000     0.038500000000     0.738180000000    -0.463      
O        O      0.272275000000     0.213266666667     0.641860000000    -0.44       
O        O      0.257740000000     0.253500000000     0.684380000000    -0.449      
Tb       Tb     0.051795000000     0.268950000000     0.602314000000     1.567      
C        C      0.089200000000     0.150966666667     0.613820000000     0.092      
H        H      0.071550000000     0.149666666667     0.610340000000     0.015      
C        C      0.100250000000     0.181733333333     0.613380000000    -0.14       
C        C      0.126700000000     0.183766666667     0.617860000000     0.112      
H        H      0.134850000000     0.204033333333     0.617920000000     0          
C        C      0.140680000000     0.154833333333     0.622240000000    -0.205      
C        C      0.127550000000     0.125233333333     0.623080000000     0.117      
H        H      0.136900000000     0.106000000000     0.626740000000     0.013      
C        C      0.083900000000     0.211800000000     0.609000000000     0.328      
C        C      0.169300000000     0.154600000000     0.627080000000     0.478      
N        N      0.102145000000     0.122933333333     0.618880000000    -0.147      
O        O      0.060715000000     0.208233333333     0.798540000000    -0.388      
O        O      0.093400000000     0.239733333333     0.615440000000    -0.382      
O        O      0.180975000000     0.180100000000     0.619180000000    -0.481      
O        O      0.179790000000     0.128166666667     0.638180000000    -0.465      
O        O      0.022275000000     0.286733333333     0.741860000000    -0.43       
O        O      0.007740000000     0.246500000000     0.784380000000    -0.443      
Tb       Tb     0.301795000000     0.102283333333     0.602314000000     1.587      
C        C      0.339200000000     0.317633333333     0.613820000000     0.089      
H        H      0.321550000000     0.316333333333     0.610340000000     0.018      
C        C      0.350250000000     0.015066666667     0.613380000000    -0.138      
C        C      0.376700000000     0.017100000000     0.617860000000     0.113      
H        H      0.384850000000     0.037366666667     0.617920000000     0.001      
C        C      0.390680000000     0.321500000000     0.622240000000    -0.206      
C        C      0.377550000000     0.291900000000     0.623080000000     0.116      
H        H      0.386900000000     0.272666666667     0.626740000000     0.013      
C        C      0.333900000000     0.045133333333     0.609000000000     0.33       
C        C      0.419300000000     0.321266666667     0.627080000000     0.476      
N        N      0.352145000000     0.289600000000     0.618880000000    -0.147      
O        O      0.310715000000     0.041566666667     0.798540000000    -0.388      
O        O      0.343400000000     0.073066666667     0.615440000000    -0.382      
O        O      0.430975000000     0.013433333333     0.619180000000    -0.478      
O        O      0.429790000000     0.294833333333     0.638180000000    -0.463      
O        O      0.272275000000     0.120066666667     0.741860000000    -0.44       
O        O      0.257740000000     0.079833333333     0.784380000000    -0.449      
Tb       Tb     0.448205000000     0.268950000000     0.697686000000     1.595      
C        C      0.410800000000     0.150966666667     0.686180000000     0.091      
H        H      0.428450000000     0.149666666667     0.689660000000     0.021      
C        C      0.399750000000     0.181733333333     0.686620000000    -0.138      
C        C      0.373300000000     0.183766666667     0.682140000000     0.112      
H        H      0.365150000000     0.204033333333     0.682080000000     0.001      
C        C      0.359320000000     0.154833333333     0.677760000000    -0.204      
C        C      0.372450000000     0.125233333333     0.676920000000     0.116      
H        H      0.363100000000     0.106000000000     0.673260000000     0.013      
C        C      0.416100000000     0.211800000000     0.691000000000     0.329      
C        C      0.330700000000     0.154600000000     0.672920000000     0.478      
N        N      0.397855000000     0.122933333333     0.681120000000    -0.146      
O        O      0.439285000000     0.208233333333     0.701460000000    -0.385      
O        O      0.406600000000     0.239733333333     0.684560000000    -0.383      
O        O      0.319025000000     0.180100000000     0.680820000000    -0.481      
O        O      0.320210000000     0.128166666667     0.661820000000    -0.465      
O        O      0.477725000000     0.286733333333     0.758140000000    -0.404      
O        O      0.492260000000     0.246500000000     0.715620000000    -0.407      
Tb       Tb     0.198205000000     0.102283333333     0.697686000000     1.587      
C        C      0.160800000000     0.317633333333     0.686180000000     0.091      
H        H      0.178450000000     0.316333333333     0.689660000000     0.018      
C        C      0.149750000000     0.015066666667     0.686620000000    -0.139      
C        C      0.123300000000     0.017100000000     0.682140000000     0.112      
H        H      0.115150000000     0.037366666667     0.682080000000     0.001      
C        C      0.109320000000     0.321500000000     0.677760000000    -0.204      
C        C      0.122450000000     0.291900000000     0.676920000000     0.116      
H        H      0.113100000000     0.272666666667     0.673260000000     0.013      
C        C      0.166100000000     0.045133333333     0.691000000000     0.33       
C        C      0.080700000000     0.321266666667     0.672920000000     0.476      
N        N      0.147855000000     0.289600000000     0.681120000000    -0.147      
O        O      0.189285000000     0.041566666667     0.701460000000    -0.388      
O        O      0.156600000000     0.073066666667     0.684560000000    -0.382      
O        O      0.069025000000     0.013433333333     0.680820000000    -0.481      
O        O      0.070210000000     0.294833333333     0.661820000000    -0.465      
O        O      0.227725000000     0.120066666667     0.758140000000    -0.44       
O        O      0.242260000000     0.079833333333     0.715620000000    -0.449      
S        S      0.000000000000     0.067106666667     0.650000000000     0.612      
S        S      0.250000000000     0.233773333333     0.650000000000     0.701      
S        S      0.000000000000     0.266226666667     0.750000000000     0.615      
S        S      0.250000000000     0.099560000000     0.750000000000     0.701      
Tb       Tb     0.448205000000     0.064383333333     0.997686000000     1.589      
C        C      0.410800000000     0.182366666667     0.986180000000     0.09       
H        H      0.428450000000     0.183666666667     0.989660000000     0.021      
C        C      0.399750000000     0.151600000000     0.986620000000    -0.137      
C        C      0.373300000000     0.149566666667     0.982140000000     0.111      
H        H      0.365150000000     0.129300000000     0.982080000000     0.001      
C        C      0.359320000000     0.178500000000     0.977760000000    -0.204      
C        C      0.372450000000     0.208100000000     0.976920000000     0.116      
H        H      0.363100000000     0.227333333333     0.973260000000     0.013      
C        C      0.416100000000     0.121533333333     0.991000000000     0.326      
C        C      0.330700000000     0.178733333333     0.972920000000     0.478      
N        N      0.397855000000     0.210400000000     0.981120000000    -0.146      
O        O      0.439285000000     0.125100000000     0.801460000000    -0.382      
O        O      0.406600000000     0.093600000000     0.984560000000    -0.382      
O        O      0.319025000000     0.153233333333     0.980820000000    -0.481      
O        O      0.320210000000     0.205166666667     0.961820000000    -0.465      
O        O      0.477725000000     0.046600000000     0.858140000000    -0.402      
O        O      0.492260000000     0.086833333333     0.815620000000    -0.404      
Tb       Tb     0.198205000000     0.231050000000     0.997686000000     1.587      
C        C      0.160800000000     0.015700000000     0.986180000000     0.089      
H        H      0.178450000000     0.017000000000     0.989660000000     0.018      
C        C      0.149750000000     0.318266666667     0.986620000000    -0.138      
C        C      0.123300000000     0.316233333333     0.982140000000     0.113      
H        H      0.115150000000     0.295966666667     0.982080000000     0.001      
C        C      0.109320000000     0.011833333333     0.977760000000    -0.205      
C        C      0.122450000000     0.041433333333     0.976920000000     0.116      
H        H      0.113100000000     0.060666666667     0.973260000000     0.013      
C        C      0.166100000000     0.288200000000     0.991000000000     0.33       
C        C      0.080700000000     0.012066666667     0.972920000000     0.475      
N        N      0.147855000000     0.043733333333     0.981120000000    -0.146      
O        O      0.189285000000     0.291766666667     0.801460000000    -0.388      
O        O      0.156600000000     0.260266666667     0.984560000000    -0.382      
O        O      0.069025000000     0.319900000000     0.980820000000    -0.479      
O        O      0.070210000000     0.038500000000     0.961820000000    -0.465      
O        O      0.227725000000     0.213266666667     0.858140000000    -0.44       
O        O      0.242260000000     0.253500000000     0.815620000000    -0.449      
Tb       Tb     0.051795000000     0.064383333333     0.902314000000     1.573      
C        C      0.089200000000     0.182366666667     0.913820000000     0.093      
H        H      0.071550000000     0.183666666667     0.910340000000     0.016      
C        C      0.100250000000     0.151600000000     0.913380000000    -0.141      
C        C      0.126700000000     0.149566666667     0.917860000000     0.113      
H        H      0.134850000000     0.129300000000     0.917920000000     0          
C        C      0.140680000000     0.178500000000     0.922240000000    -0.205      
C        C      0.127550000000     0.208100000000     0.923080000000     0.117      
H        H      0.136900000000     0.227333333333     0.926740000000     0.013      
C        C      0.083900000000     0.121533333333     0.909000000000     0.33       
C        C      0.169300000000     0.178733333333     0.927080000000     0.478      
N        N      0.102145000000     0.210400000000     0.918880000000    -0.147      
O        O      0.060715000000     0.125100000000     0.898540000000    -0.391      
O        O      0.093400000000     0.093600000000     0.915440000000    -0.382      
O        O      0.180975000000     0.153233333333     0.919180000000    -0.481      
O        O      0.179790000000     0.205166666667     0.938180000000    -0.465      
O        O      0.022275000000     0.046600000000     0.841860000000    -0.431      
O        O      0.007740000000     0.086833333333     0.884380000000    -0.445      
Tb       Tb     0.301795000000     0.231050000000     0.902314000000     1.587      
C        C      0.339200000000     0.015700000000     0.913820000000     0.091      
H        H      0.321550000000     0.017000000000     0.910340000000     0.018      
C        C      0.350250000000     0.318266666667     0.913380000000    -0.139      
C        C      0.376700000000     0.316233333333     0.917860000000     0.112      
H        H      0.384850000000     0.295966666667     0.917920000000     0          
C        C      0.390680000000     0.011833333333     0.922240000000    -0.205      
C        C      0.377550000000     0.041433333333     0.923080000000     0.116      
H        H      0.386900000000     0.060666666667     0.926740000000     0.013      
C        C      0.333900000000     0.288200000000     0.909000000000     0.33       
C        C      0.419300000000     0.012066666667     0.927080000000     0.477      
N        N      0.352145000000     0.043733333333     0.918880000000    -0.147      
O        O      0.310715000000     0.291766666667     0.898540000000    -0.388      
O        O      0.343400000000     0.260266666667     0.915440000000    -0.383      
O        O      0.430975000000     0.319900000000     0.919180000000    -0.481      
O        O      0.429790000000     0.038500000000     0.938180000000    -0.463      
O        O      0.272275000000     0.213266666667     0.841860000000    -0.44       
O        O      0.257740000000     0.253500000000     0.884380000000    -0.449      
Tb       Tb     0.051795000000     0.268950000000     0.802314000000     1.567      
C        C      0.089200000000     0.150966666667     0.813820000000     0.092      
H        H      0.071550000000     0.149666666667     0.810340000000     0.015      
C        C      0.100250000000     0.181733333333     0.813380000000    -0.14       
C        C      0.126700000000     0.183766666667     0.817860000000     0.112      
H        H      0.134850000000     0.204033333333     0.817920000000     0          
C        C      0.140680000000     0.154833333333     0.822240000000    -0.205      
C        C      0.127550000000     0.125233333333     0.823080000000     0.117      
H        H      0.136900000000     0.106000000000     0.826740000000     0.013      
C        C      0.083900000000     0.211800000000     0.809000000000     0.328      
C        C      0.169300000000     0.154600000000     0.827080000000     0.478      
N        N      0.102145000000     0.122933333333     0.818880000000    -0.147      
O        O      0.060715000000     0.208233333333     0.998540000000    -0.388      
O        O      0.093400000000     0.239733333333     0.815440000000    -0.382      
O        O      0.180975000000     0.180100000000     0.819180000000    -0.481      
O        O      0.179790000000     0.128166666667     0.838180000000    -0.465      
O        O      0.022275000000     0.286733333333     0.941860000000    -0.43       
O        O      0.007740000000     0.246500000000     0.984380000000    -0.443      
Tb       Tb     0.301795000000     0.102283333333     0.802314000000     1.587      
C        C      0.339200000000     0.317633333333     0.813820000000     0.089      
H        H      0.321550000000     0.316333333333     0.810340000000     0.018      
C        C      0.350250000000     0.015066666667     0.813380000000    -0.138      
C        C      0.376700000000     0.017100000000     0.817860000000     0.113      
H        H      0.384850000000     0.037366666667     0.817920000000     0.001      
C        C      0.390680000000     0.321500000000     0.822240000000    -0.206      
C        C      0.377550000000     0.291900000000     0.823080000000     0.116      
H        H      0.386900000000     0.272666666667     0.826740000000     0.013      
C        C      0.333900000000     0.045133333333     0.809000000000     0.33       
C        C      0.419300000000     0.321266666667     0.827080000000     0.476      
N        N      0.352145000000     0.289600000000     0.818880000000    -0.147      
O        O      0.310715000000     0.041566666667     0.998540000000    -0.388      
O        O      0.343400000000     0.073066666667     0.815440000000    -0.382      
O        O      0.430975000000     0.013433333333     0.819180000000    -0.478      
O        O      0.429790000000     0.294833333333     0.838180000000    -0.463      
O        O      0.272275000000     0.120066666667     0.941860000000    -0.44       
O        O      0.257740000000     0.079833333333     0.984380000000    -0.449      
Tb       Tb     0.448205000000     0.268950000000     0.897686000000     1.595      
C        C      0.410800000000     0.150966666667     0.886180000000     0.091      
H        H      0.428450000000     0.149666666667     0.889660000000     0.021      
C        C      0.399750000000     0.181733333333     0.886620000000    -0.138      
C        C      0.373300000000     0.183766666667     0.882140000000     0.112      
H        H      0.365150000000     0.204033333333     0.882080000000     0.001      
C        C      0.359320000000     0.154833333333     0.877760000000    -0.204      
C        C      0.372450000000     0.125233333333     0.876920000000     0.116      
H        H      0.363100000000     0.106000000000     0.873260000000     0.013      
C        C      0.416100000000     0.211800000000     0.891000000000     0.329      
C        C      0.330700000000     0.154600000000     0.872920000000     0.478      
N        N      0.397855000000     0.122933333333     0.881120000000    -0.146      
O        O      0.439285000000     0.208233333333     0.901460000000    -0.385      
O        O      0.406600000000     0.239733333333     0.884560000000    -0.383      
O        O      0.319025000000     0.180100000000     0.880820000000    -0.481      
O        O      0.320210000000     0.128166666667     0.861820000000    -0.465      
O        O      0.477725000000     0.286733333333     0.958140000000    -0.404      
O        O      0.492260000000     0.246500000000     0.915620000000    -0.407      
Tb       Tb     0.198205000000     0.102283333333     0.897686000000     1.587      
C        C      0.160800000000     0.317633333333     0.886180000000     0.091      
H        H      0.178450000000     0.316333333333     0.889660000000     0.018      
C        C      0.149750000000     0.015066666667     0.886620000000    -0.139      
C        C      0.123300000000     0.017100000000     0.882140000000     0.112      
H        H      0.115150000000     0.037366666667     0.882080000000     0.001      
C        C      0.109320000000     0.321500000000     0.877760000000    -0.204      
C        C      0.122450000000     0.291900000000     0.876920000000     0.116      
H        H      0.113100000000     0.272666666667     0.873260000000     0.013      
C        C      0.166100000000     0.045133333333     0.891000000000     0.33       
C        C      0.080700000000     0.321266666667     0.872920000000     0.476      
N        N      0.147855000000     0.289600000000     0.881120000000    -0.147      
O        O      0.189285000000     0.041566666667     0.901460000000    -0.388      
O        O      0.156600000000     0.073066666667     0.884560000000    -0.382      
O        O      0.069025000000     0.013433333333     0.880820000000    -0.481      
O        O      0.070210000000     0.294833333333     0.861820000000    -0.465      
O        O      0.227725000000     0.120066666667     0.958140000000    -0.44       
O        O      0.242260000000     0.079833333333     0.915620000000    -0.449      
S        S      0.000000000000     0.067106666667     0.850000000000     0.612      
S        S      0.250000000000     0.233773333333     0.850000000000     0.701      
S        S      0.000000000000     0.266226666667     0.950000000000     0.615      
S        S      0.250000000000     0.099560000000     0.950000000000     0.701      
Tb       Tb     0.448205000000     0.397716666667     0.197686000000     1.589      
C        C      0.410800000000     0.515700000000     0.186180000000     0.09       
H        H      0.428450000000     0.517000000000     0.189660000000     0.021      
C        C      0.399750000000     0.484933333333     0.186620000000    -0.137      
C        C      0.373300000000     0.482900000000     0.182140000000     0.111      
H        H      0.365150000000     0.462633333333     0.182080000000     0.001      
C        C      0.359320000000     0.511833333333     0.177760000000    -0.204      
C        C      0.372450000000     0.541433333333     0.176920000000     0.116      
H        H      0.363100000000     0.560666666667     0.173260000000     0.013      
C        C      0.416100000000     0.454866666667     0.191000000000     0.326      
C        C      0.330700000000     0.512066666667     0.172920000000     0.478      
N        N      0.397855000000     0.543733333333     0.181120000000    -0.146      
O        O      0.439285000000     0.458433333333     0.001460000000    -0.382      
O        O      0.406600000000     0.426933333333     0.184560000000    -0.382      
O        O      0.319025000000     0.486566666667     0.180820000000    -0.481      
O        O      0.320210000000     0.538500000000     0.161820000000    -0.465      
O        O      0.477725000000     0.379933333333     0.058140000000    -0.402      
O        O      0.492260000000     0.420166666667     0.015620000000    -0.404      
Tb       Tb     0.198205000000     0.564383333333     0.197686000000     1.587      
C        C      0.160800000000     0.349033333333     0.186180000000     0.089      
H        H      0.178450000000     0.350333333333     0.189660000000     0.018      
C        C      0.149750000000     0.651600000000     0.186620000000    -0.138      
C        C      0.123300000000     0.649566666667     0.182140000000     0.113      
H        H      0.115150000000     0.629300000000     0.182080000000     0.001      
C        C      0.109320000000     0.345166666667     0.177760000000    -0.205      
C        C      0.122450000000     0.374766666667     0.176920000000     0.116      
H        H      0.113100000000     0.394000000000     0.173260000000     0.013      
C        C      0.166100000000     0.621533333333     0.191000000000     0.33       
C        C      0.080700000000     0.345400000000     0.172920000000     0.475      
N        N      0.147855000000     0.377066666667     0.181120000000    -0.146      
O        O      0.189285000000     0.625100000000     0.001460000000    -0.388      
O        O      0.156600000000     0.593600000000     0.184560000000    -0.382      
O        O      0.069025000000     0.653233333333     0.180820000000    -0.479      
O        O      0.070210000000     0.371833333333     0.161820000000    -0.465      
O        O      0.227725000000     0.546600000000     0.058140000000    -0.44       
O        O      0.242260000000     0.586833333333     0.015620000000    -0.449      
Tb       Tb     0.051795000000     0.397716666667     0.102314000000     1.573      
C        C      0.089200000000     0.515700000000     0.113820000000     0.093      
H        H      0.071550000000     0.517000000000     0.110340000000     0.016      
C        C      0.100250000000     0.484933333333     0.113380000000    -0.141      
C        C      0.126700000000     0.482900000000     0.117860000000     0.113      
H        H      0.134850000000     0.462633333333     0.117920000000     0          
C        C      0.140680000000     0.511833333333     0.122240000000    -0.205      
C        C      0.127550000000     0.541433333333     0.123080000000     0.117      
H        H      0.136900000000     0.560666666667     0.126740000000     0.013      
C        C      0.083900000000     0.454866666667     0.109000000000     0.33       
C        C      0.169300000000     0.512066666667     0.127080000000     0.478      
N        N      0.102145000000     0.543733333333     0.118880000000    -0.147      
O        O      0.060715000000     0.458433333333     0.098540000000    -0.391      
O        O      0.093400000000     0.426933333333     0.115440000000    -0.382      
O        O      0.180975000000     0.486566666667     0.119180000000    -0.481      
O        O      0.179790000000     0.538500000000     0.138180000000    -0.465      
O        O      0.022275000000     0.379933333333     0.041860000000    -0.431      
O        O      0.007740000000     0.420166666667     0.084380000000    -0.445      
Tb       Tb     0.301795000000     0.564383333333     0.102314000000     1.587      
C        C      0.339200000000     0.349033333333     0.113820000000     0.091      
H        H      0.321550000000     0.350333333333     0.110340000000     0.018      
C        C      0.350250000000     0.651600000000     0.113380000000    -0.139      
C        C      0.376700000000     0.649566666667     0.117860000000     0.112      
H        H      0.384850000000     0.629300000000     0.117920000000     0          
C        C      0.390680000000     0.345166666667     0.122240000000    -0.205      
C        C      0.377550000000     0.374766666667     0.123080000000     0.116      
H        H      0.386900000000     0.394000000000     0.126740000000     0.013      
C        C      0.333900000000     0.621533333333     0.109000000000     0.33       
C        C      0.419300000000     0.345400000000     0.127080000000     0.477      
N        N      0.352145000000     0.377066666667     0.118880000000    -0.147      
O        O      0.310715000000     0.625100000000     0.098540000000    -0.388      
O        O      0.343400000000     0.593600000000     0.115440000000    -0.383      
O        O      0.430975000000     0.653233333333     0.119180000000    -0.481      
O        O      0.429790000000     0.371833333333     0.138180000000    -0.463      
O        O      0.272275000000     0.546600000000     0.041860000000    -0.44       
O        O      0.257740000000     0.586833333333     0.084380000000    -0.449      
Tb       Tb     0.051795000000     0.602283333333     0.002314000000     1.567      
C        C      0.089200000000     0.484300000000     0.013820000000     0.092      
H        H      0.071550000000     0.483000000000     0.010340000000     0.015      
C        C      0.100250000000     0.515066666667     0.013380000000    -0.14       
C        C      0.126700000000     0.517100000000     0.017860000000     0.112      
H        H      0.134850000000     0.537366666667     0.017920000000     0          
C        C      0.140680000000     0.488166666667     0.022240000000    -0.205      
C        C      0.127550000000     0.458566666667     0.023080000000     0.117      
H        H      0.136900000000     0.439333333333     0.026740000000     0.013      
C        C      0.083900000000     0.545133333333     0.009000000000     0.328      
C        C      0.169300000000     0.487933333333     0.027080000000     0.478      
N        N      0.102145000000     0.456266666667     0.018880000000    -0.147      
O        O      0.060715000000     0.541566666667     0.198540000000    -0.388      
O        O      0.093400000000     0.573066666667     0.015440000000    -0.382      
O        O      0.180975000000     0.513433333333     0.019180000000    -0.481      
O        O      0.179790000000     0.461500000000     0.038180000000    -0.465      
O        O      0.022275000000     0.620066666667     0.141860000000    -0.43       
O        O      0.007740000000     0.579833333333     0.184380000000    -0.443      
Tb       Tb     0.301795000000     0.435616666667     0.002314000000     1.587      
C        C      0.339200000000     0.650966666667     0.013820000000     0.089      
H        H      0.321550000000     0.649666666667     0.010340000000     0.018      
C        C      0.350250000000     0.348400000000     0.013380000000    -0.138      
C        C      0.376700000000     0.350433333333     0.017860000000     0.113      
H        H      0.384850000000     0.370700000000     0.017920000000     0.001      
C        C      0.390680000000     0.654833333333     0.022240000000    -0.206      
C        C      0.377550000000     0.625233333333     0.023080000000     0.116      
H        H      0.386900000000     0.606000000000     0.026740000000     0.013      
C        C      0.333900000000     0.378466666667     0.009000000000     0.33       
C        C      0.419300000000     0.654600000000     0.027080000000     0.476      
N        N      0.352145000000     0.622933333333     0.018880000000    -0.147      
O        O      0.310715000000     0.374900000000     0.198540000000    -0.388      
O        O      0.343400000000     0.406400000000     0.015440000000    -0.382      
O        O      0.430975000000     0.346766666667     0.019180000000    -0.478      
O        O      0.429790000000     0.628166666667     0.038180000000    -0.463      
O        O      0.272275000000     0.453400000000     0.141860000000    -0.44       
O        O      0.257740000000     0.413166666667     0.184380000000    -0.449      
Tb       Tb     0.448205000000     0.602283333333     0.097686000000     1.595      
C        C      0.410800000000     0.484300000000     0.086180000000     0.091      
H        H      0.428450000000     0.483000000000     0.089660000000     0.021      
C        C      0.399750000000     0.515066666667     0.086620000000    -0.138      
C        C      0.373300000000     0.517100000000     0.082140000000     0.112      
H        H      0.365150000000     0.537366666667     0.082080000000     0.001      
C        C      0.359320000000     0.488166666667     0.077760000000    -0.204      
C        C      0.372450000000     0.458566666667     0.076920000000     0.116      
H        H      0.363100000000     0.439333333333     0.073260000000     0.013      
C        C      0.416100000000     0.545133333333     0.091000000000     0.329      
C        C      0.330700000000     0.487933333333     0.072920000000     0.478      
N        N      0.397855000000     0.456266666667     0.081120000000    -0.146      
O        O      0.439285000000     0.541566666667     0.101460000000    -0.385      
O        O      0.406600000000     0.573066666667     0.084560000000    -0.383      
O        O      0.319025000000     0.513433333333     0.080820000000    -0.481      
O        O      0.320210000000     0.461500000000     0.061820000000    -0.465      
O        O      0.477725000000     0.620066666667     0.158140000000    -0.404      
O        O      0.492260000000     0.579833333333     0.115620000000    -0.407      
Tb       Tb     0.198205000000     0.435616666667     0.097686000000     1.587      
C        C      0.160800000000     0.650966666667     0.086180000000     0.091      
H        H      0.178450000000     0.649666666667     0.089660000000     0.018      
C        C      0.149750000000     0.348400000000     0.086620000000    -0.139      
C        C      0.123300000000     0.350433333333     0.082140000000     0.112      
H        H      0.115150000000     0.370700000000     0.082080000000     0.001      
C        C      0.109320000000     0.654833333333     0.077760000000    -0.204      
C        C      0.122450000000     0.625233333333     0.076920000000     0.116      
H        H      0.113100000000     0.606000000000     0.073260000000     0.013      
C        C      0.166100000000     0.378466666667     0.091000000000     0.33       
C        C      0.080700000000     0.654600000000     0.072920000000     0.476      
N        N      0.147855000000     0.622933333333     0.081120000000    -0.147      
O        O      0.189285000000     0.374900000000     0.101460000000    -0.388      
O        O      0.156600000000     0.406400000000     0.084560000000    -0.382      
O        O      0.069025000000     0.346766666667     0.080820000000    -0.481      
O        O      0.070210000000     0.628166666667     0.061820000000    -0.465      
O        O      0.227725000000     0.453400000000     0.158140000000    -0.44       
O        O      0.242260000000     0.413166666667     0.115620000000    -0.449      
S        S      0.000000000000     0.400440000000     0.050000000000     0.612      
S        S      0.250000000000     0.567106666667     0.050000000000     0.701      
S        S      0.000000000000     0.599560000000     0.150000000000     0.615      
S        S      0.250000000000     0.432893333333     0.150000000000     0.701      
Tb       Tb     0.448205000000     0.397716666667     0.397686000000     1.589      
C        C      0.410800000000     0.515700000000     0.386180000000     0.09       
H        H      0.428450000000     0.517000000000     0.389660000000     0.021      
C        C      0.399750000000     0.484933333333     0.386620000000    -0.137      
C        C      0.373300000000     0.482900000000     0.382140000000     0.111      
H        H      0.365150000000     0.462633333333     0.382080000000     0.001      
C        C      0.359320000000     0.511833333333     0.377760000000    -0.204      
C        C      0.372450000000     0.541433333333     0.376920000000     0.116      
H        H      0.363100000000     0.560666666667     0.373260000000     0.013      
C        C      0.416100000000     0.454866666667     0.391000000000     0.326      
C        C      0.330700000000     0.512066666667     0.372920000000     0.478      
N        N      0.397855000000     0.543733333333     0.381120000000    -0.146      
O        O      0.439285000000     0.458433333333     0.201460000000    -0.382      
O        O      0.406600000000     0.426933333333     0.384560000000    -0.382      
O        O      0.319025000000     0.486566666667     0.380820000000    -0.481      
O        O      0.320210000000     0.538500000000     0.361820000000    -0.465      
O        O      0.477725000000     0.379933333333     0.258140000000    -0.402      
O        O      0.492260000000     0.420166666667     0.215620000000    -0.404      
Tb       Tb     0.198205000000     0.564383333333     0.397686000000     1.587      
C        C      0.160800000000     0.349033333333     0.386180000000     0.089      
H        H      0.178450000000     0.350333333333     0.389660000000     0.018      
C        C      0.149750000000     0.651600000000     0.386620000000    -0.138      
C        C      0.123300000000     0.649566666667     0.382140000000     0.113      
H        H      0.115150000000     0.629300000000     0.382080000000     0.001      
C        C      0.109320000000     0.345166666667     0.377760000000    -0.205      
C        C      0.122450000000     0.374766666667     0.376920000000     0.116      
H        H      0.113100000000     0.394000000000     0.373260000000     0.013      
C        C      0.166100000000     0.621533333333     0.391000000000     0.33       
C        C      0.080700000000     0.345400000000     0.372920000000     0.475      
N        N      0.147855000000     0.377066666667     0.381120000000    -0.146      
O        O      0.189285000000     0.625100000000     0.201460000000    -0.388      
O        O      0.156600000000     0.593600000000     0.384560000000    -0.382      
O        O      0.069025000000     0.653233333333     0.380820000000    -0.479      
O        O      0.070210000000     0.371833333333     0.361820000000    -0.465      
O        O      0.227725000000     0.546600000000     0.258140000000    -0.44       
O        O      0.242260000000     0.586833333333     0.215620000000    -0.449      
Tb       Tb     0.051795000000     0.397716666667     0.302314000000     1.573      
C        C      0.089200000000     0.515700000000     0.313820000000     0.093      
H        H      0.071550000000     0.517000000000     0.310340000000     0.016      
C        C      0.100250000000     0.484933333333     0.313380000000    -0.141      
C        C      0.126700000000     0.482900000000     0.317860000000     0.113      
H        H      0.134850000000     0.462633333333     0.317920000000     0          
C        C      0.140680000000     0.511833333333     0.322240000000    -0.205      
C        C      0.127550000000     0.541433333333     0.323080000000     0.117      
H        H      0.136900000000     0.560666666667     0.326740000000     0.013      
C        C      0.083900000000     0.454866666667     0.309000000000     0.33       
C        C      0.169300000000     0.512066666667     0.327080000000     0.478      
N        N      0.102145000000     0.543733333333     0.318880000000    -0.147      
O        O      0.060715000000     0.458433333333     0.298540000000    -0.391      
O        O      0.093400000000     0.426933333333     0.315440000000    -0.382      
O        O      0.180975000000     0.486566666667     0.319180000000    -0.481      
O        O      0.179790000000     0.538500000000     0.338180000000    -0.465      
O        O      0.022275000000     0.379933333333     0.241860000000    -0.431      
O        O      0.007740000000     0.420166666667     0.284380000000    -0.445      
Tb       Tb     0.301795000000     0.564383333333     0.302314000000     1.587      
C        C      0.339200000000     0.349033333333     0.313820000000     0.091      
H        H      0.321550000000     0.350333333333     0.310340000000     0.018      
C        C      0.350250000000     0.651600000000     0.313380000000    -0.139      
C        C      0.376700000000     0.649566666667     0.317860000000     0.112      
H        H      0.384850000000     0.629300000000     0.317920000000     0          
C        C      0.390680000000     0.345166666667     0.322240000000    -0.205      
C        C      0.377550000000     0.374766666667     0.323080000000     0.116      
H        H      0.386900000000     0.394000000000     0.326740000000     0.013      
C        C      0.333900000000     0.621533333333     0.309000000000     0.33       
C        C      0.419300000000     0.345400000000     0.327080000000     0.477      
N        N      0.352145000000     0.377066666667     0.318880000000    -0.147      
O        O      0.310715000000     0.625100000000     0.298540000000    -0.388      
O        O      0.343400000000     0.593600000000     0.315440000000    -0.383      
O        O      0.430975000000     0.653233333333     0.319180000000    -0.481      
O        O      0.429790000000     0.371833333333     0.338180000000    -0.463      
O        O      0.272275000000     0.546600000000     0.241860000000    -0.44       
O        O      0.257740000000     0.586833333333     0.284380000000    -0.449      
Tb       Tb     0.051795000000     0.602283333333     0.202314000000     1.567      
C        C      0.089200000000     0.484300000000     0.213820000000     0.092      
H        H      0.071550000000     0.483000000000     0.210340000000     0.015      
C        C      0.100250000000     0.515066666667     0.213380000000    -0.14       
C        C      0.126700000000     0.517100000000     0.217860000000     0.112      
H        H      0.134850000000     0.537366666667     0.217920000000     0          
C        C      0.140680000000     0.488166666667     0.222240000000    -0.205      
C        C      0.127550000000     0.458566666667     0.223080000000     0.117      
H        H      0.136900000000     0.439333333333     0.226740000000     0.013      
C        C      0.083900000000     0.545133333333     0.209000000000     0.328      
C        C      0.169300000000     0.487933333333     0.227080000000     0.478      
N        N      0.102145000000     0.456266666667     0.218880000000    -0.147      
O        O      0.060715000000     0.541566666667     0.398540000000    -0.388      
O        O      0.093400000000     0.573066666667     0.215440000000    -0.382      
O        O      0.180975000000     0.513433333333     0.219180000000    -0.481      
O        O      0.179790000000     0.461500000000     0.238180000000    -0.465      
O        O      0.022275000000     0.620066666667     0.341860000000    -0.43       
O        O      0.007740000000     0.579833333333     0.384380000000    -0.443      
Tb       Tb     0.301795000000     0.435616666667     0.202314000000     1.587      
C        C      0.339200000000     0.650966666667     0.213820000000     0.089      
H        H      0.321550000000     0.649666666667     0.210340000000     0.018      
C        C      0.350250000000     0.348400000000     0.213380000000    -0.138      
C        C      0.376700000000     0.350433333333     0.217860000000     0.113      
H        H      0.384850000000     0.370700000000     0.217920000000     0.001      
C        C      0.390680000000     0.654833333333     0.222240000000    -0.206      
C        C      0.377550000000     0.625233333333     0.223080000000     0.116      
H        H      0.386900000000     0.606000000000     0.226740000000     0.013      
C        C      0.333900000000     0.378466666667     0.209000000000     0.33       
C        C      0.419300000000     0.654600000000     0.227080000000     0.476      
N        N      0.352145000000     0.622933333333     0.218880000000    -0.147      
O        O      0.310715000000     0.374900000000     0.398540000000    -0.388      
O        O      0.343400000000     0.406400000000     0.215440000000    -0.382      
O        O      0.430975000000     0.346766666667     0.219180000000    -0.478      
O        O      0.429790000000     0.628166666667     0.238180000000    -0.463      
O        O      0.272275000000     0.453400000000     0.341860000000    -0.44       
O        O      0.257740000000     0.413166666667     0.384380000000    -0.449      
Tb       Tb     0.448205000000     0.602283333333     0.297686000000     1.595      
C        C      0.410800000000     0.484300000000     0.286180000000     0.091      
H        H      0.428450000000     0.483000000000     0.289660000000     0.021      
C        C      0.399750000000     0.515066666667     0.286620000000    -0.138      
C        C      0.373300000000     0.517100000000     0.282140000000     0.112      
H        H      0.365150000000     0.537366666667     0.282080000000     0.001      
C        C      0.359320000000     0.488166666667     0.277760000000    -0.204      
C        C      0.372450000000     0.458566666667     0.276920000000     0.116      
H        H      0.363100000000     0.439333333333     0.273260000000     0.013      
C        C      0.416100000000     0.545133333333     0.291000000000     0.329      
C        C      0.330700000000     0.487933333333     0.272920000000     0.478      
N        N      0.397855000000     0.456266666667     0.281120000000    -0.146      
O        O      0.439285000000     0.541566666667     0.301460000000    -0.385      
O        O      0.406600000000     0.573066666667     0.284560000000    -0.383      
O        O      0.319025000000     0.513433333333     0.280820000000    -0.481      
O        O      0.320210000000     0.461500000000     0.261820000000    -0.465      
O        O      0.477725000000     0.620066666667     0.358140000000    -0.404      
O        O      0.492260000000     0.579833333333     0.315620000000    -0.407      
Tb       Tb     0.198205000000     0.435616666667     0.297686000000     1.587      
C        C      0.160800000000     0.650966666667     0.286180000000     0.091      
H        H      0.178450000000     0.649666666667     0.289660000000     0.018      
C        C      0.149750000000     0.348400000000     0.286620000000    -0.139      
C        C      0.123300000000     0.350433333333     0.282140000000     0.112      
H        H      0.115150000000     0.370700000000     0.282080000000     0.001      
C        C      0.109320000000     0.654833333333     0.277760000000    -0.204      
C        C      0.122450000000     0.625233333333     0.276920000000     0.116      
H        H      0.113100000000     0.606000000000     0.273260000000     0.013      
C        C      0.166100000000     0.378466666667     0.291000000000     0.33       
C        C      0.080700000000     0.654600000000     0.272920000000     0.476      
N        N      0.147855000000     0.622933333333     0.281120000000    -0.147      
O        O      0.189285000000     0.374900000000     0.301460000000    -0.388      
O        O      0.156600000000     0.406400000000     0.284560000000    -0.382      
O        O      0.069025000000     0.346766666667     0.280820000000    -0.481      
O        O      0.070210000000     0.628166666667     0.261820000000    -0.465      
O        O      0.227725000000     0.453400000000     0.358140000000    -0.44       
O        O      0.242260000000     0.413166666667     0.315620000000    -0.449      
S        S      0.000000000000     0.400440000000     0.250000000000     0.612      
S        S      0.250000000000     0.567106666667     0.250000000000     0.701      
S        S      0.000000000000     0.599560000000     0.350000000000     0.615      
S        S      0.250000000000     0.432893333333     0.350000000000     0.701      
Tb       Tb     0.448205000000     0.397716666667     0.597686000000     1.589      
C        C      0.410800000000     0.515700000000     0.586180000000     0.09       
H        H      0.428450000000     0.517000000000     0.589660000000     0.021      
C        C      0.399750000000     0.484933333333     0.586620000000    -0.137      
C        C      0.373300000000     0.482900000000     0.582140000000     0.111      
H        H      0.365150000000     0.462633333333     0.582080000000     0.001      
C        C      0.359320000000     0.511833333333     0.577760000000    -0.204      
C        C      0.372450000000     0.541433333333     0.576920000000     0.116      
H        H      0.363100000000     0.560666666667     0.573260000000     0.013      
C        C      0.416100000000     0.454866666667     0.591000000000     0.326      
C        C      0.330700000000     0.512066666667     0.572920000000     0.478      
N        N      0.397855000000     0.543733333333     0.581120000000    -0.146      
O        O      0.439285000000     0.458433333333     0.401460000000    -0.382      
O        O      0.406600000000     0.426933333333     0.584560000000    -0.382      
O        O      0.319025000000     0.486566666667     0.580820000000    -0.481      
O        O      0.320210000000     0.538500000000     0.561820000000    -0.465      
O        O      0.477725000000     0.379933333333     0.458140000000    -0.402      
O        O      0.492260000000     0.420166666667     0.415620000000    -0.404      
Tb       Tb     0.198205000000     0.564383333333     0.597686000000     1.587      
C        C      0.160800000000     0.349033333333     0.586180000000     0.089      
H        H      0.178450000000     0.350333333333     0.589660000000     0.018      
C        C      0.149750000000     0.651600000000     0.586620000000    -0.138      
C        C      0.123300000000     0.649566666667     0.582140000000     0.113      
H        H      0.115150000000     0.629300000000     0.582080000000     0.001      
C        C      0.109320000000     0.345166666667     0.577760000000    -0.205      
C        C      0.122450000000     0.374766666667     0.576920000000     0.116      
H        H      0.113100000000     0.394000000000     0.573260000000     0.013      
C        C      0.166100000000     0.621533333333     0.591000000000     0.33       
C        C      0.080700000000     0.345400000000     0.572920000000     0.475      
N        N      0.147855000000     0.377066666667     0.581120000000    -0.146      
O        O      0.189285000000     0.625100000000     0.401460000000    -0.388      
O        O      0.156600000000     0.593600000000     0.584560000000    -0.382      
O        O      0.069025000000     0.653233333333     0.580820000000    -0.479      
O        O      0.070210000000     0.371833333333     0.561820000000    -0.465      
O        O      0.227725000000     0.546600000000     0.458140000000    -0.44       
O        O      0.242260000000     0.586833333333     0.415620000000    -0.449      
Tb       Tb     0.051795000000     0.397716666667     0.502314000000     1.573      
C        C      0.089200000000     0.515700000000     0.513820000000     0.093      
H        H      0.071550000000     0.517000000000     0.510340000000     0.016      
C        C      0.100250000000     0.484933333333     0.513380000000    -0.141      
C        C      0.126700000000     0.482900000000     0.517860000000     0.113      
H        H      0.134850000000     0.462633333333     0.517920000000     0          
C        C      0.140680000000     0.511833333333     0.522240000000    -0.205      
C        C      0.127550000000     0.541433333333     0.523080000000     0.117      
H        H      0.136900000000     0.560666666667     0.526740000000     0.013      
C        C      0.083900000000     0.454866666667     0.509000000000     0.33       
C        C      0.169300000000     0.512066666667     0.527080000000     0.478      
N        N      0.102145000000     0.543733333333     0.518880000000    -0.147      
O        O      0.060715000000     0.458433333333     0.498540000000    -0.391      
O        O      0.093400000000     0.426933333333     0.515440000000    -0.382      
O        O      0.180975000000     0.486566666667     0.519180000000    -0.481      
O        O      0.179790000000     0.538500000000     0.538180000000    -0.465      
O        O      0.022275000000     0.379933333333     0.441860000000    -0.431      
O        O      0.007740000000     0.420166666667     0.484380000000    -0.445      
Tb       Tb     0.301795000000     0.564383333333     0.502314000000     1.587      
C        C      0.339200000000     0.349033333333     0.513820000000     0.091      
H        H      0.321550000000     0.350333333333     0.510340000000     0.018      
C        C      0.350250000000     0.651600000000     0.513380000000    -0.139      
C        C      0.376700000000     0.649566666667     0.517860000000     0.112      
H        H      0.384850000000     0.629300000000     0.517920000000     0          
C        C      0.390680000000     0.345166666667     0.522240000000    -0.205      
C        C      0.377550000000     0.374766666667     0.523080000000     0.116      
H        H      0.386900000000     0.394000000000     0.526740000000     0.013      
C        C      0.333900000000     0.621533333333     0.509000000000     0.33       
C        C      0.419300000000     0.345400000000     0.527080000000     0.477      
N        N      0.352145000000     0.377066666667     0.518880000000    -0.147      
O        O      0.310715000000     0.625100000000     0.498540000000    -0.388      
O        O      0.343400000000     0.593600000000     0.515440000000    -0.383      
O        O      0.430975000000     0.653233333333     0.519180000000    -0.481      
O        O      0.429790000000     0.371833333333     0.538180000000    -0.463      
O        O      0.272275000000     0.546600000000     0.441860000000    -0.44       
O        O      0.257740000000     0.586833333333     0.484380000000    -0.449      
Tb       Tb     0.051795000000     0.602283333333     0.402314000000     1.567      
C        C      0.089200000000     0.484300000000     0.413820000000     0.092      
H        H      0.071550000000     0.483000000000     0.410340000000     0.015      
C        C      0.100250000000     0.515066666667     0.413380000000    -0.14       
C        C      0.126700000000     0.517100000000     0.417860000000     0.112      
H        H      0.134850000000     0.537366666667     0.417920000000     0          
C        C      0.140680000000     0.488166666667     0.422240000000    -0.205      
C        C      0.127550000000     0.458566666667     0.423080000000     0.117      
H        H      0.136900000000     0.439333333333     0.426740000000     0.013      
C        C      0.083900000000     0.545133333333     0.409000000000     0.328      
C        C      0.169300000000     0.487933333333     0.427080000000     0.478      
N        N      0.102145000000     0.456266666667     0.418880000000    -0.147      
O        O      0.060715000000     0.541566666667     0.598540000000    -0.388      
O        O      0.093400000000     0.573066666667     0.415440000000    -0.382      
O        O      0.180975000000     0.513433333333     0.419180000000    -0.481      
O        O      0.179790000000     0.461500000000     0.438180000000    -0.465      
O        O      0.022275000000     0.620066666667     0.541860000000    -0.43       
O        O      0.007740000000     0.579833333333     0.584380000000    -0.443      
Tb       Tb     0.301795000000     0.435616666667     0.402314000000     1.587      
C        C      0.339200000000     0.650966666667     0.413820000000     0.089      
H        H      0.321550000000     0.649666666667     0.410340000000     0.018      
C        C      0.350250000000     0.348400000000     0.413380000000    -0.138      
C        C      0.376700000000     0.350433333333     0.417860000000     0.113      
H        H      0.384850000000     0.370700000000     0.417920000000     0.001      
C        C      0.390680000000     0.654833333333     0.422240000000    -0.206      
C        C      0.377550000000     0.625233333333     0.423080000000     0.116      
H        H      0.386900000000     0.606000000000     0.426740000000     0.013      
C        C      0.333900000000     0.378466666667     0.409000000000     0.33       
C        C      0.419300000000     0.654600000000     0.427080000000     0.476      
N        N      0.352145000000     0.622933333333     0.418880000000    -0.147      
O        O      0.310715000000     0.374900000000     0.598540000000    -0.388      
O        O      0.343400000000     0.406400000000     0.415440000000    -0.382      
O        O      0.430975000000     0.346766666667     0.419180000000    -0.478      
O        O      0.429790000000     0.628166666667     0.438180000000    -0.463      
O        O      0.272275000000     0.453400000000     0.541860000000    -0.44       
O        O      0.257740000000     0.413166666667     0.584380000000    -0.449      
Tb       Tb     0.448205000000     0.602283333333     0.497686000000     1.595      
C        C      0.410800000000     0.484300000000     0.486180000000     0.091      
H        H      0.428450000000     0.483000000000     0.489660000000     0.021      
C        C      0.399750000000     0.515066666667     0.486620000000    -0.138      
C        C      0.373300000000     0.517100000000     0.482140000000     0.112      
H        H      0.365150000000     0.537366666667     0.482080000000     0.001      
C        C      0.359320000000     0.488166666667     0.477760000000    -0.204      
C        C      0.372450000000     0.458566666667     0.476920000000     0.116      
H        H      0.363100000000     0.439333333333     0.473260000000     0.013      
C        C      0.416100000000     0.545133333333     0.491000000000     0.329      
C        C      0.330700000000     0.487933333333     0.472920000000     0.478      
N        N      0.397855000000     0.456266666667     0.481120000000    -0.146      
O        O      0.439285000000     0.541566666667     0.501460000000    -0.385      
O        O      0.406600000000     0.573066666667     0.484560000000    -0.383      
O        O      0.319025000000     0.513433333333     0.480820000000    -0.481      
O        O      0.320210000000     0.461500000000     0.461820000000    -0.465      
O        O      0.477725000000     0.620066666667     0.558140000000    -0.404      
O        O      0.492260000000     0.579833333333     0.515620000000    -0.407      
Tb       Tb     0.198205000000     0.435616666667     0.497686000000     1.587      
C        C      0.160800000000     0.650966666667     0.486180000000     0.091      
H        H      0.178450000000     0.649666666667     0.489660000000     0.018      
C        C      0.149750000000     0.348400000000     0.486620000000    -0.139      
C        C      0.123300000000     0.350433333333     0.482140000000     0.112      
H        H      0.115150000000     0.370700000000     0.482080000000     0.001      
C        C      0.109320000000     0.654833333333     0.477760000000    -0.204      
C        C      0.122450000000     0.625233333333     0.476920000000     0.116      
H        H      0.113100000000     0.606000000000     0.473260000000     0.013      
C        C      0.166100000000     0.378466666667     0.491000000000     0.33       
C        C      0.080700000000     0.654600000000     0.472920000000     0.476      
N        N      0.147855000000     0.622933333333     0.481120000000    -0.147      
O        O      0.189285000000     0.374900000000     0.501460000000    -0.388      
O        O      0.156600000000     0.406400000000     0.484560000000    -0.382      
O        O      0.069025000000     0.346766666667     0.480820000000    -0.481      
O        O      0.070210000000     0.628166666667     0.461820000000    -0.465      
O        O      0.227725000000     0.453400000000     0.558140000000    -0.44       
O        O      0.242260000000     0.413166666667     0.515620000000    -0.449      
S        S      0.000000000000     0.400440000000     0.450000000000     0.612      
S        S      0.250000000000     0.567106666667     0.450000000000     0.701      
S        S      0.000000000000     0.599560000000     0.550000000000     0.615      
S        S      0.250000000000     0.432893333333     0.550000000000     0.701      
Tb       Tb     0.448205000000     0.397716666667     0.797686000000     1.589      
C        C      0.410800000000     0.515700000000     0.786180000000     0.09       
H        H      0.428450000000     0.517000000000     0.789660000000     0.021      
C        C      0.399750000000     0.484933333333     0.786620000000    -0.137      
C        C      0.373300000000     0.482900000000     0.782140000000     0.111      
H        H      0.365150000000     0.462633333333     0.782080000000     0.001      
C        C      0.359320000000     0.511833333333     0.777760000000    -0.204      
C        C      0.372450000000     0.541433333333     0.776920000000     0.116      
H        H      0.363100000000     0.560666666667     0.773260000000     0.013      
C        C      0.416100000000     0.454866666667     0.791000000000     0.326      
C        C      0.330700000000     0.512066666667     0.772920000000     0.478      
N        N      0.397855000000     0.543733333333     0.781120000000    -0.146      
O        O      0.439285000000     0.458433333333     0.601460000000    -0.382      
O        O      0.406600000000     0.426933333333     0.784560000000    -0.382      
O        O      0.319025000000     0.486566666667     0.780820000000    -0.481      
O        O      0.320210000000     0.538500000000     0.761820000000    -0.465      
O        O      0.477725000000     0.379933333333     0.658140000000    -0.402      
O        O      0.492260000000     0.420166666667     0.615620000000    -0.404      
Tb       Tb     0.198205000000     0.564383333333     0.797686000000     1.587      
C        C      0.160800000000     0.349033333333     0.786180000000     0.089      
H        H      0.178450000000     0.350333333333     0.789660000000     0.018      
C        C      0.149750000000     0.651600000000     0.786620000000    -0.138      
C        C      0.123300000000     0.649566666667     0.782140000000     0.113      
H        H      0.115150000000     0.629300000000     0.782080000000     0.001      
C        C      0.109320000000     0.345166666667     0.777760000000    -0.205      
C        C      0.122450000000     0.374766666667     0.776920000000     0.116      
H        H      0.113100000000     0.394000000000     0.773260000000     0.013      
C        C      0.166100000000     0.621533333333     0.791000000000     0.33       
C        C      0.080700000000     0.345400000000     0.772920000000     0.475      
N        N      0.147855000000     0.377066666667     0.781120000000    -0.146      
O        O      0.189285000000     0.625100000000     0.601460000000    -0.388      
O        O      0.156600000000     0.593600000000     0.784560000000    -0.382      
O        O      0.069025000000     0.653233333333     0.780820000000    -0.479      
O        O      0.070210000000     0.371833333333     0.761820000000    -0.465      
O        O      0.227725000000     0.546600000000     0.658140000000    -0.44       
O        O      0.242260000000     0.586833333333     0.615620000000    -0.449      
Tb       Tb     0.051795000000     0.397716666667     0.702314000000     1.573      
C        C      0.089200000000     0.515700000000     0.713820000000     0.093      
H        H      0.071550000000     0.517000000000     0.710340000000     0.016      
C        C      0.100250000000     0.484933333333     0.713380000000    -0.141      
C        C      0.126700000000     0.482900000000     0.717860000000     0.113      
H        H      0.134850000000     0.462633333333     0.717920000000     0          
C        C      0.140680000000     0.511833333333     0.722240000000    -0.205      
C        C      0.127550000000     0.541433333333     0.723080000000     0.117      
H        H      0.136900000000     0.560666666667     0.726740000000     0.013      
C        C      0.083900000000     0.454866666667     0.709000000000     0.33       
C        C      0.169300000000     0.512066666667     0.727080000000     0.478      
N        N      0.102145000000     0.543733333333     0.718880000000    -0.147      
O        O      0.060715000000     0.458433333333     0.698540000000    -0.391      
O        O      0.093400000000     0.426933333333     0.715440000000    -0.382      
O        O      0.180975000000     0.486566666667     0.719180000000    -0.481      
O        O      0.179790000000     0.538500000000     0.738180000000    -0.465      
O        O      0.022275000000     0.379933333333     0.641860000000    -0.431      
O        O      0.007740000000     0.420166666667     0.684380000000    -0.445      
Tb       Tb     0.301795000000     0.564383333333     0.702314000000     1.587      
C        C      0.339200000000     0.349033333333     0.713820000000     0.091      
H        H      0.321550000000     0.350333333333     0.710340000000     0.018      
C        C      0.350250000000     0.651600000000     0.713380000000    -0.139      
C        C      0.376700000000     0.649566666667     0.717860000000     0.112      
H        H      0.384850000000     0.629300000000     0.717920000000     0          
C        C      0.390680000000     0.345166666667     0.722240000000    -0.205      
C        C      0.377550000000     0.374766666667     0.723080000000     0.116      
H        H      0.386900000000     0.394000000000     0.726740000000     0.013      
C        C      0.333900000000     0.621533333333     0.709000000000     0.33       
C        C      0.419300000000     0.345400000000     0.727080000000     0.477      
N        N      0.352145000000     0.377066666667     0.718880000000    -0.147      
O        O      0.310715000000     0.625100000000     0.698540000000    -0.388      
O        O      0.343400000000     0.593600000000     0.715440000000    -0.383      
O        O      0.430975000000     0.653233333333     0.719180000000    -0.481      
O        O      0.429790000000     0.371833333333     0.738180000000    -0.463      
O        O      0.272275000000     0.546600000000     0.641860000000    -0.44       
O        O      0.257740000000     0.586833333333     0.684380000000    -0.449      
Tb       Tb     0.051795000000     0.602283333333     0.602314000000     1.567      
C        C      0.089200000000     0.484300000000     0.613820000000     0.092      
H        H      0.071550000000     0.483000000000     0.610340000000     0.015      
C        C      0.100250000000     0.515066666667     0.613380000000    -0.14       
C        C      0.126700000000     0.517100000000     0.617860000000     0.112      
H        H      0.134850000000     0.537366666667     0.617920000000     0          
C        C      0.140680000000     0.488166666667     0.622240000000    -0.205      
C        C      0.127550000000     0.458566666667     0.623080000000     0.117      
H        H      0.136900000000     0.439333333333     0.626740000000     0.013      
C        C      0.083900000000     0.545133333333     0.609000000000     0.328      
C        C      0.169300000000     0.487933333333     0.627080000000     0.478      
N        N      0.102145000000     0.456266666667     0.618880000000    -0.147      
O        O      0.060715000000     0.541566666667     0.798540000000    -0.388      
O        O      0.093400000000     0.573066666667     0.615440000000    -0.382      
O        O      0.180975000000     0.513433333333     0.619180000000    -0.481      
O        O      0.179790000000     0.461500000000     0.638180000000    -0.465      
O        O      0.022275000000     0.620066666667     0.741860000000    -0.43       
O        O      0.007740000000     0.579833333333     0.784380000000    -0.443      
Tb       Tb     0.301795000000     0.435616666667     0.602314000000     1.587      
C        C      0.339200000000     0.650966666667     0.613820000000     0.089      
H        H      0.321550000000     0.649666666667     0.610340000000     0.018      
C        C      0.350250000000     0.348400000000     0.613380000000    -0.138      
C        C      0.376700000000     0.350433333333     0.617860000000     0.113      
H        H      0.384850000000     0.370700000000     0.617920000000     0.001      
C        C      0.390680000000     0.654833333333     0.622240000000    -0.206      
C        C      0.377550000000     0.625233333333     0.623080000000     0.116      
H        H      0.386900000000     0.606000000000     0.626740000000     0.013      
C        C      0.333900000000     0.378466666667     0.609000000000     0.33       
C        C      0.419300000000     0.654600000000     0.627080000000     0.476      
N        N      0.352145000000     0.622933333333     0.618880000000    -0.147      
O        O      0.310715000000     0.374900000000     0.798540000000    -0.388      
O        O      0.343400000000     0.406400000000     0.615440000000    -0.382      
O        O      0.430975000000     0.346766666667     0.619180000000    -0.478      
O        O      0.429790000000     0.628166666667     0.638180000000    -0.463      
O        O      0.272275000000     0.453400000000     0.741860000000    -0.44       
O        O      0.257740000000     0.413166666667     0.784380000000    -0.449      
Tb       Tb     0.448205000000     0.602283333333     0.697686000000     1.595      
C        C      0.410800000000     0.484300000000     0.686180000000     0.091      
H        H      0.428450000000     0.483000000000     0.689660000000     0.021      
C        C      0.399750000000     0.515066666667     0.686620000000    -0.138      
C        C      0.373300000000     0.517100000000     0.682140000000     0.112      
H        H      0.365150000000     0.537366666667     0.682080000000     0.001      
C        C      0.359320000000     0.488166666667     0.677760000000    -0.204      
C        C      0.372450000000     0.458566666667     0.676920000000     0.116      
H        H      0.363100000000     0.439333333333     0.673260000000     0.013      
C        C      0.416100000000     0.545133333333     0.691000000000     0.329      
C        C      0.330700000000     0.487933333333     0.672920000000     0.478      
N        N      0.397855000000     0.456266666667     0.681120000000    -0.146      
O        O      0.439285000000     0.541566666667     0.701460000000    -0.385      
O        O      0.406600000000     0.573066666667     0.684560000000    -0.383      
O        O      0.319025000000     0.513433333333     0.680820000000    -0.481      
O        O      0.320210000000     0.461500000000     0.661820000000    -0.465      
O        O      0.477725000000     0.620066666667     0.758140000000    -0.404      
O        O      0.492260000000     0.579833333333     0.715620000000    -0.407      
Tb       Tb     0.198205000000     0.435616666667     0.697686000000     1.587      
C        C      0.160800000000     0.650966666667     0.686180000000     0.091      
H        H      0.178450000000     0.649666666667     0.689660000000     0.018      
C        C      0.149750000000     0.348400000000     0.686620000000    -0.139      
C        C      0.123300000000     0.350433333333     0.682140000000     0.112      
H        H      0.115150000000     0.370700000000     0.682080000000     0.001      
C        C      0.109320000000     0.654833333333     0.677760000000    -0.204      
C        C      0.122450000000     0.625233333333     0.676920000000     0.116      
H        H      0.113100000000     0.606000000000     0.673260000000     0.013      
C        C      0.166100000000     0.378466666667     0.691000000000     0.33       
C        C      0.080700000000     0.654600000000     0.672920000000     0.476      
N        N      0.147855000000     0.622933333333     0.681120000000    -0.147      
O        O      0.189285000000     0.374900000000     0.701460000000    -0.388      
O        O      0.156600000000     0.406400000000     0.684560000000    -0.382      
O        O      0.069025000000     0.346766666667     0.680820000000    -0.481      
O        O      0.070210000000     0.628166666667     0.661820000000    -0.465      
O        O      0.227725000000     0.453400000000     0.758140000000    -0.44       
O        O      0.242260000000     0.413166666667     0.715620000000    -0.449      
S        S      0.000000000000     0.400440000000     0.650000000000     0.612      
S        S      0.250000000000     0.567106666667     0.650000000000     0.701      
S        S      0.000000000000     0.599560000000     0.750000000000     0.615      
S        S      0.250000000000     0.432893333333     0.750000000000     0.701      
Tb       Tb     0.448205000000     0.397716666667     0.997686000000     1.589      
C        C      0.410800000000     0.515700000000     0.986180000000     0.09       
H        H      0.428450000000     0.517000000000     0.989660000000     0.021      
C        C      0.399750000000     0.484933333333     0.986620000000    -0.137      
C        C      0.373300000000     0.482900000000     0.982140000000     0.111      
H        H      0.365150000000     0.462633333333     0.982080000000     0.001      
C        C      0.359320000000     0.511833333333     0.977760000000    -0.204      
C        C      0.372450000000     0.541433333333     0.976920000000     0.116      
H        H      0.363100000000     0.560666666667     0.973260000000     0.013      
C        C      0.416100000000     0.454866666667     0.991000000000     0.326      
C        C      0.330700000000     0.512066666667     0.972920000000     0.478      
N        N      0.397855000000     0.543733333333     0.981120000000    -0.146      
O        O      0.439285000000     0.458433333333     0.801460000000    -0.382      
O        O      0.406600000000     0.426933333333     0.984560000000    -0.382      
O        O      0.319025000000     0.486566666667     0.980820000000    -0.481      
O        O      0.320210000000     0.538500000000     0.961820000000    -0.465      
O        O      0.477725000000     0.379933333333     0.858140000000    -0.402      
O        O      0.492260000000     0.420166666667     0.815620000000    -0.404      
Tb       Tb     0.198205000000     0.564383333333     0.997686000000     1.587      
C        C      0.160800000000     0.349033333333     0.986180000000     0.089      
H        H      0.178450000000     0.350333333333     0.989660000000     0.018      
C        C      0.149750000000     0.651600000000     0.986620000000    -0.138      
C        C      0.123300000000     0.649566666667     0.982140000000     0.113      
H        H      0.115150000000     0.629300000000     0.982080000000     0.001      
C        C      0.109320000000     0.345166666667     0.977760000000    -0.205      
C        C      0.122450000000     0.374766666667     0.976920000000     0.116      
H        H      0.113100000000     0.394000000000     0.973260000000     0.013      
C        C      0.166100000000     0.621533333333     0.991000000000     0.33       
C        C      0.080700000000     0.345400000000     0.972920000000     0.475      
N        N      0.147855000000     0.377066666667     0.981120000000    -0.146      
O        O      0.189285000000     0.625100000000     0.801460000000    -0.388      
O        O      0.156600000000     0.593600000000     0.984560000000    -0.382      
O        O      0.069025000000     0.653233333333     0.980820000000    -0.479      
O        O      0.070210000000     0.371833333333     0.961820000000    -0.465      
O        O      0.227725000000     0.546600000000     0.858140000000    -0.44       
O        O      0.242260000000     0.586833333333     0.815620000000    -0.449      
Tb       Tb     0.051795000000     0.397716666667     0.902314000000     1.573      
C        C      0.089200000000     0.515700000000     0.913820000000     0.093      
H        H      0.071550000000     0.517000000000     0.910340000000     0.016      
C        C      0.100250000000     0.484933333333     0.913380000000    -0.141      
C        C      0.126700000000     0.482900000000     0.917860000000     0.113      
H        H      0.134850000000     0.462633333333     0.917920000000     0          
C        C      0.140680000000     0.511833333333     0.922240000000    -0.205      
C        C      0.127550000000     0.541433333333     0.923080000000     0.117      
H        H      0.136900000000     0.560666666667     0.926740000000     0.013      
C        C      0.083900000000     0.454866666667     0.909000000000     0.33       
C        C      0.169300000000     0.512066666667     0.927080000000     0.478      
N        N      0.102145000000     0.543733333333     0.918880000000    -0.147      
O        O      0.060715000000     0.458433333333     0.898540000000    -0.391      
O        O      0.093400000000     0.426933333333     0.915440000000    -0.382      
O        O      0.180975000000     0.486566666667     0.919180000000    -0.481      
O        O      0.179790000000     0.538500000000     0.938180000000    -0.465      
O        O      0.022275000000     0.379933333333     0.841860000000    -0.431      
O        O      0.007740000000     0.420166666667     0.884380000000    -0.445      
Tb       Tb     0.301795000000     0.564383333333     0.902314000000     1.587      
C        C      0.339200000000     0.349033333333     0.913820000000     0.091      
H        H      0.321550000000     0.350333333333     0.910340000000     0.018      
C        C      0.350250000000     0.651600000000     0.913380000000    -0.139      
C        C      0.376700000000     0.649566666667     0.917860000000     0.112      
H        H      0.384850000000     0.629300000000     0.917920000000     0          
C        C      0.390680000000     0.345166666667     0.922240000000    -0.205      
C        C      0.377550000000     0.374766666667     0.923080000000     0.116      
H        H      0.386900000000     0.394000000000     0.926740000000     0.013      
C        C      0.333900000000     0.621533333333     0.909000000000     0.33       
C        C      0.419300000000     0.345400000000     0.927080000000     0.477      
N        N      0.352145000000     0.377066666667     0.918880000000    -0.147      
O        O      0.310715000000     0.625100000000     0.898540000000    -0.388      
O        O      0.343400000000     0.593600000000     0.915440000000    -0.383      
O        O      0.430975000000     0.653233333333     0.919180000000    -0.481      
O        O      0.429790000000     0.371833333333     0.938180000000    -0.463      
O        O      0.272275000000     0.546600000000     0.841860000000    -0.44       
O        O      0.257740000000     0.586833333333     0.884380000000    -0.449      
Tb       Tb     0.051795000000     0.602283333333     0.802314000000     1.567      
C        C      0.089200000000     0.484300000000     0.813820000000     0.092      
H        H      0.071550000000     0.483000000000     0.810340000000     0.015      
C        C      0.100250000000     0.515066666667     0.813380000000    -0.14       
C        C      0.126700000000     0.517100000000     0.817860000000     0.112      
H        H      0.134850000000     0.537366666667     0.817920000000     0          
C        C      0.140680000000     0.488166666667     0.822240000000    -0.205      
C        C      0.127550000000     0.458566666667     0.823080000000     0.117      
H        H      0.136900000000     0.439333333333     0.826740000000     0.013      
C        C      0.083900000000     0.545133333333     0.809000000000     0.328      
C        C      0.169300000000     0.487933333333     0.827080000000     0.478      
N        N      0.102145000000     0.456266666667     0.818880000000    -0.147      
O        O      0.060715000000     0.541566666667     0.998540000000    -0.388      
O        O      0.093400000000     0.573066666667     0.815440000000    -0.382      
O        O      0.180975000000     0.513433333333     0.819180000000    -0.481      
O        O      0.179790000000     0.461500000000     0.838180000000    -0.465      
O        O      0.022275000000     0.620066666667     0.941860000000    -0.43       
O        O      0.007740000000     0.579833333333     0.984380000000    -0.443      
Tb       Tb     0.301795000000     0.435616666667     0.802314000000     1.587      
C        C      0.339200000000     0.650966666667     0.813820000000     0.089      
H        H      0.321550000000     0.649666666667     0.810340000000     0.018      
C        C      0.350250000000     0.348400000000     0.813380000000    -0.138      
C        C      0.376700000000     0.350433333333     0.817860000000     0.113      
H        H      0.384850000000     0.370700000000     0.817920000000     0.001      
C        C      0.390680000000     0.654833333333     0.822240000000    -0.206      
C        C      0.377550000000     0.625233333333     0.823080000000     0.116      
H        H      0.386900000000     0.606000000000     0.826740000000     0.013      
C        C      0.333900000000     0.378466666667     0.809000000000     0.33       
C        C      0.419300000000     0.654600000000     0.827080000000     0.476      
N        N      0.352145000000     0.622933333333     0.818880000000    -0.147      
O        O      0.310715000000     0.374900000000     0.998540000000    -0.388      
O        O      0.343400000000     0.406400000000     0.815440000000    -0.382      
O        O      0.430975000000     0.346766666667     0.819180000000    -0.478      
O        O      0.429790000000     0.628166666667     0.838180000000    -0.463      
O        O      0.272275000000     0.453400000000     0.941860000000    -0.44       
O        O      0.257740000000     0.413166666667     0.984380000000    -0.449      
Tb       Tb     0.448205000000     0.602283333333     0.897686000000     1.595      
C        C      0.410800000000     0.484300000000     0.886180000000     0.091      
H        H      0.428450000000     0.483000000000     0.889660000000     0.021      
C        C      0.399750000000     0.515066666667     0.886620000000    -0.138      
C        C      0.373300000000     0.517100000000     0.882140000000     0.112      
H        H      0.365150000000     0.537366666667     0.882080000000     0.001      
C        C      0.359320000000     0.488166666667     0.877760000000    -0.204      
C        C      0.372450000000     0.458566666667     0.876920000000     0.116      
H        H      0.363100000000     0.439333333333     0.873260000000     0.013      
C        C      0.416100000000     0.545133333333     0.891000000000     0.329      
C        C      0.330700000000     0.487933333333     0.872920000000     0.478      
N        N      0.397855000000     0.456266666667     0.881120000000    -0.146      
O        O      0.439285000000     0.541566666667     0.901460000000    -0.385      
O        O      0.406600000000     0.573066666667     0.884560000000    -0.383      
O        O      0.319025000000     0.513433333333     0.880820000000    -0.481      
O        O      0.320210000000     0.461500000000     0.861820000000    -0.465      
O        O      0.477725000000     0.620066666667     0.958140000000    -0.404      
O        O      0.492260000000     0.579833333333     0.915620000000    -0.407      
Tb       Tb     0.198205000000     0.435616666667     0.897686000000     1.587      
C        C      0.160800000000     0.650966666667     0.886180000000     0.091      
H        H      0.178450000000     0.649666666667     0.889660000000     0.018      
C        C      0.149750000000     0.348400000000     0.886620000000    -0.139      
C        C      0.123300000000     0.350433333333     0.882140000000     0.112      
H        H      0.115150000000     0.370700000000     0.882080000000     0.001      
C        C      0.109320000000     0.654833333333     0.877760000000    -0.204      
C        C      0.122450000000     0.625233333333     0.876920000000     0.116      
H        H      0.113100000000     0.606000000000     0.873260000000     0.013      
C        C      0.166100000000     0.378466666667     0.891000000000     0.33       
C        C      0.080700000000     0.654600000000     0.872920000000     0.476      
N        N      0.147855000000     0.622933333333     0.881120000000    -0.147      
O        O      0.189285000000     0.374900000000     0.901460000000    -0.388      
O        O      0.156600000000     0.406400000000     0.884560000000    -0.382      
O        O      0.069025000000     0.346766666667     0.880820000000    -0.481      
O        O      0.070210000000     0.628166666667     0.861820000000    -0.465      
O        O      0.227725000000     0.453400000000     0.958140000000    -0.44       
O        O      0.242260000000     0.413166666667     0.915620000000    -0.449      
S        S      0.000000000000     0.400440000000     0.850000000000     0.612      
S        S      0.250000000000     0.567106666667     0.850000000000     0.701      
S        S      0.000000000000     0.599560000000     0.950000000000     0.615      
S        S      0.250000000000     0.432893333333     0.950000000000     0.701      
Tb       Tb     0.448205000000     0.731050000000     0.197686000000     1.589      
C        C      0.410800000000     0.849033333333     0.186180000000     0.09       
H        H      0.428450000000     0.850333333333     0.189660000000     0.021      
C        C      0.399750000000     0.818266666667     0.186620000000    -0.137      
C        C      0.373300000000     0.816233333333     0.182140000000     0.111      
H        H      0.365150000000     0.795966666667     0.182080000000     0.001      
C        C      0.359320000000     0.845166666667     0.177760000000    -0.204      
C        C      0.372450000000     0.874766666667     0.176920000000     0.116      
H        H      0.363100000000     0.894000000000     0.173260000000     0.013      
C        C      0.416100000000     0.788200000000     0.191000000000     0.326      
C        C      0.330700000000     0.845400000000     0.172920000000     0.478      
N        N      0.397855000000     0.877066666667     0.181120000000    -0.146      
O        O      0.439285000000     0.791766666667     0.001460000000    -0.382      
O        O      0.406600000000     0.760266666667     0.184560000000    -0.382      
O        O      0.319025000000     0.819900000000     0.180820000000    -0.481      
O        O      0.320210000000     0.871833333333     0.161820000000    -0.465      
O        O      0.477725000000     0.713266666667     0.058140000000    -0.402      
O        O      0.492260000000     0.753500000000     0.015620000000    -0.404      
Tb       Tb     0.198205000000     0.897716666667     0.197686000000     1.587      
C        C      0.160800000000     0.682366666667     0.186180000000     0.089      
H        H      0.178450000000     0.683666666667     0.189660000000     0.018      
C        C      0.149750000000     0.984933333333     0.186620000000    -0.138      
C        C      0.123300000000     0.982900000000     0.182140000000     0.113      
H        H      0.115150000000     0.962633333333     0.182080000000     0.001      
C        C      0.109320000000     0.678500000000     0.177760000000    -0.205      
C        C      0.122450000000     0.708100000000     0.176920000000     0.116      
H        H      0.113100000000     0.727333333333     0.173260000000     0.013      
C        C      0.166100000000     0.954866666667     0.191000000000     0.33       
C        C      0.080700000000     0.678733333333     0.172920000000     0.475      
N        N      0.147855000000     0.710400000000     0.181120000000    -0.146      
O        O      0.189285000000     0.958433333333     0.001460000000    -0.388      
O        O      0.156600000000     0.926933333333     0.184560000000    -0.382      
O        O      0.069025000000     0.986566666667     0.180820000000    -0.479      
O        O      0.070210000000     0.705166666667     0.161820000000    -0.465      
O        O      0.227725000000     0.879933333333     0.058140000000    -0.44       
O        O      0.242260000000     0.920166666667     0.015620000000    -0.449      
Tb       Tb     0.051795000000     0.731050000000     0.102314000000     1.573      
C        C      0.089200000000     0.849033333333     0.113820000000     0.093      
H        H      0.071550000000     0.850333333333     0.110340000000     0.016      
C        C      0.100250000000     0.818266666667     0.113380000000    -0.141      
C        C      0.126700000000     0.816233333333     0.117860000000     0.113      
H        H      0.134850000000     0.795966666667     0.117920000000     0          
C        C      0.140680000000     0.845166666667     0.122240000000    -0.205      
C        C      0.127550000000     0.874766666667     0.123080000000     0.117      
H        H      0.136900000000     0.894000000000     0.126740000000     0.013      
C        C      0.083900000000     0.788200000000     0.109000000000     0.33       
C        C      0.169300000000     0.845400000000     0.127080000000     0.478      
N        N      0.102145000000     0.877066666667     0.118880000000    -0.147      
O        O      0.060715000000     0.791766666667     0.098540000000    -0.391      
O        O      0.093400000000     0.760266666667     0.115440000000    -0.382      
O        O      0.180975000000     0.819900000000     0.119180000000    -0.481      
O        O      0.179790000000     0.871833333333     0.138180000000    -0.465      
O        O      0.022275000000     0.713266666667     0.041860000000    -0.431      
O        O      0.007740000000     0.753500000000     0.084380000000    -0.445      
Tb       Tb     0.301795000000     0.897716666667     0.102314000000     1.587      
C        C      0.339200000000     0.682366666667     0.113820000000     0.091      
H        H      0.321550000000     0.683666666667     0.110340000000     0.018      
C        C      0.350250000000     0.984933333333     0.113380000000    -0.139      
C        C      0.376700000000     0.982900000000     0.117860000000     0.112      
H        H      0.384850000000     0.962633333333     0.117920000000     0          
C        C      0.390680000000     0.678500000000     0.122240000000    -0.205      
C        C      0.377550000000     0.708100000000     0.123080000000     0.116      
H        H      0.386900000000     0.727333333333     0.126740000000     0.013      
C        C      0.333900000000     0.954866666667     0.109000000000     0.33       
C        C      0.419300000000     0.678733333333     0.127080000000     0.477      
N        N      0.352145000000     0.710400000000     0.118880000000    -0.147      
O        O      0.310715000000     0.958433333333     0.098540000000    -0.388      
O        O      0.343400000000     0.926933333333     0.115440000000    -0.383      
O        O      0.430975000000     0.986566666667     0.119180000000    -0.481      
O        O      0.429790000000     0.705166666667     0.138180000000    -0.463      
O        O      0.272275000000     0.879933333333     0.041860000000    -0.44       
O        O      0.257740000000     0.920166666667     0.084380000000    -0.449      
Tb       Tb     0.051795000000     0.935616666667     0.002314000000     1.567      
C        C      0.089200000000     0.817633333333     0.013820000000     0.092      
H        H      0.071550000000     0.816333333333     0.010340000000     0.015      
C        C      0.100250000000     0.848400000000     0.013380000000    -0.14       
C        C      0.126700000000     0.850433333333     0.017860000000     0.112      
H        H      0.134850000000     0.870700000000     0.017920000000     0          
C        C      0.140680000000     0.821500000000     0.022240000000    -0.205      
C        C      0.127550000000     0.791900000000     0.023080000000     0.117      
H        H      0.136900000000     0.772666666667     0.026740000000     0.013      
C        C      0.083900000000     0.878466666667     0.009000000000     0.328      
C        C      0.169300000000     0.821266666667     0.027080000000     0.478      
N        N      0.102145000000     0.789600000000     0.018880000000    -0.147      
O        O      0.060715000000     0.874900000000     0.198540000000    -0.388      
O        O      0.093400000000     0.906400000000     0.015440000000    -0.382      
O        O      0.180975000000     0.846766666667     0.019180000000    -0.481      
O        O      0.179790000000     0.794833333333     0.038180000000    -0.465      
O        O      0.022275000000     0.953400000000     0.141860000000    -0.43       
O        O      0.007740000000     0.913166666667     0.184380000000    -0.443      
Tb       Tb     0.301795000000     0.768950000000     0.002314000000     1.587      
C        C      0.339200000000     0.984300000000     0.013820000000     0.089      
H        H      0.321550000000     0.983000000000     0.010340000000     0.018      
C        C      0.350250000000     0.681733333333     0.013380000000    -0.138      
C        C      0.376700000000     0.683766666667     0.017860000000     0.113      
H        H      0.384850000000     0.704033333333     0.017920000000     0.001      
C        C      0.390680000000     0.988166666667     0.022240000000    -0.206      
C        C      0.377550000000     0.958566666667     0.023080000000     0.116      
H        H      0.386900000000     0.939333333333     0.026740000000     0.013      
C        C      0.333900000000     0.711800000000     0.009000000000     0.33       
C        C      0.419300000000     0.987933333333     0.027080000000     0.476      
N        N      0.352145000000     0.956266666667     0.018880000000    -0.147      
O        O      0.310715000000     0.708233333333     0.198540000000    -0.388      
O        O      0.343400000000     0.739733333333     0.015440000000    -0.382      
O        O      0.430975000000     0.680100000000     0.019180000000    -0.478      
O        O      0.429790000000     0.961500000000     0.038180000000    -0.463      
O        O      0.272275000000     0.786733333333     0.141860000000    -0.44       
O        O      0.257740000000     0.746500000000     0.184380000000    -0.449      
Tb       Tb     0.448205000000     0.935616666667     0.097686000000     1.595      
C        C      0.410800000000     0.817633333333     0.086180000000     0.091      
H        H      0.428450000000     0.816333333333     0.089660000000     0.021      
C        C      0.399750000000     0.848400000000     0.086620000000    -0.138      
C        C      0.373300000000     0.850433333333     0.082140000000     0.112      
H        H      0.365150000000     0.870700000000     0.082080000000     0.001      
C        C      0.359320000000     0.821500000000     0.077760000000    -0.204      
C        C      0.372450000000     0.791900000000     0.076920000000     0.116      
H        H      0.363100000000     0.772666666667     0.073260000000     0.013      
C        C      0.416100000000     0.878466666667     0.091000000000     0.329      
C        C      0.330700000000     0.821266666667     0.072920000000     0.478      
N        N      0.397855000000     0.789600000000     0.081120000000    -0.146      
O        O      0.439285000000     0.874900000000     0.101460000000    -0.385      
O        O      0.406600000000     0.906400000000     0.084560000000    -0.383      
O        O      0.319025000000     0.846766666667     0.080820000000    -0.481      
O        O      0.320210000000     0.794833333333     0.061820000000    -0.465      
O        O      0.477725000000     0.953400000000     0.158140000000    -0.404      
O        O      0.492260000000     0.913166666667     0.115620000000    -0.407      
Tb       Tb     0.198205000000     0.768950000000     0.097686000000     1.587      
C        C      0.160800000000     0.984300000000     0.086180000000     0.091      
H        H      0.178450000000     0.983000000000     0.089660000000     0.018      
C        C      0.149750000000     0.681733333333     0.086620000000    -0.139      
C        C      0.123300000000     0.683766666667     0.082140000000     0.112      
H        H      0.115150000000     0.704033333333     0.082080000000     0.001      
C        C      0.109320000000     0.988166666667     0.077760000000    -0.204      
C        C      0.122450000000     0.958566666667     0.076920000000     0.116      
H        H      0.113100000000     0.939333333333     0.073260000000     0.013      
C        C      0.166100000000     0.711800000000     0.091000000000     0.33       
C        C      0.080700000000     0.987933333333     0.072920000000     0.476      
N        N      0.147855000000     0.956266666667     0.081120000000    -0.147      
O        O      0.189285000000     0.708233333333     0.101460000000    -0.388      
O        O      0.156600000000     0.739733333333     0.084560000000    -0.382      
O        O      0.069025000000     0.680100000000     0.080820000000    -0.481      
O        O      0.070210000000     0.961500000000     0.061820000000    -0.465      
O        O      0.227725000000     0.786733333333     0.158140000000    -0.44       
O        O      0.242260000000     0.746500000000     0.115620000000    -0.449      
S        S      0.000000000000     0.733773333333     0.050000000000     0.612      
S        S      0.250000000000     0.900440000000     0.050000000000     0.701      
S        S      0.000000000000     0.932893333333     0.150000000000     0.615      
S        S      0.250000000000     0.766226666667     0.150000000000     0.701      
Tb       Tb     0.448205000000     0.731050000000     0.397686000000     1.589      
C        C      0.410800000000     0.849033333333     0.386180000000     0.09       
H        H      0.428450000000     0.850333333333     0.389660000000     0.021      
C        C      0.399750000000     0.818266666667     0.386620000000    -0.137      
C        C      0.373300000000     0.816233333333     0.382140000000     0.111      
H        H      0.365150000000     0.795966666667     0.382080000000     0.001      
C        C      0.359320000000     0.845166666667     0.377760000000    -0.204      
C        C      0.372450000000     0.874766666667     0.376920000000     0.116      
H        H      0.363100000000     0.894000000000     0.373260000000     0.013      
C        C      0.416100000000     0.788200000000     0.391000000000     0.326      
C        C      0.330700000000     0.845400000000     0.372920000000     0.478      
N        N      0.397855000000     0.877066666667     0.381120000000    -0.146      
O        O      0.439285000000     0.791766666667     0.201460000000    -0.382      
O        O      0.406600000000     0.760266666667     0.384560000000    -0.382      
O        O      0.319025000000     0.819900000000     0.380820000000    -0.481      
O        O      0.320210000000     0.871833333333     0.361820000000    -0.465      
O        O      0.477725000000     0.713266666667     0.258140000000    -0.402      
O        O      0.492260000000     0.753500000000     0.215620000000    -0.404      
Tb       Tb     0.198205000000     0.897716666667     0.397686000000     1.587      
C        C      0.160800000000     0.682366666667     0.386180000000     0.089      
H        H      0.178450000000     0.683666666667     0.389660000000     0.018      
C        C      0.149750000000     0.984933333333     0.386620000000    -0.138      
C        C      0.123300000000     0.982900000000     0.382140000000     0.113      
H        H      0.115150000000     0.962633333333     0.382080000000     0.001      
C        C      0.109320000000     0.678500000000     0.377760000000    -0.205      
C        C      0.122450000000     0.708100000000     0.376920000000     0.116      
H        H      0.113100000000     0.727333333333     0.373260000000     0.013      
C        C      0.166100000000     0.954866666667     0.391000000000     0.33       
C        C      0.080700000000     0.678733333333     0.372920000000     0.475      
N        N      0.147855000000     0.710400000000     0.381120000000    -0.146      
O        O      0.189285000000     0.958433333333     0.201460000000    -0.388      
O        O      0.156600000000     0.926933333333     0.384560000000    -0.382      
O        O      0.069025000000     0.986566666667     0.380820000000    -0.479      
O        O      0.070210000000     0.705166666667     0.361820000000    -0.465      
O        O      0.227725000000     0.879933333333     0.258140000000    -0.44       
O        O      0.242260000000     0.920166666667     0.215620000000    -0.449      
Tb       Tb     0.051795000000     0.731050000000     0.302314000000     1.573      
C        C      0.089200000000     0.849033333333     0.313820000000     0.093      
H        H      0.071550000000     0.850333333333     0.310340000000     0.016      
C        C      0.100250000000     0.818266666667     0.313380000000    -0.141      
C        C      0.126700000000     0.816233333333     0.317860000000     0.113      
H        H      0.134850000000     0.795966666667     0.317920000000     0          
C        C      0.140680000000     0.845166666667     0.322240000000    -0.205      
C        C      0.127550000000     0.874766666667     0.323080000000     0.117      
H        H      0.136900000000     0.894000000000     0.326740000000     0.013      
C        C      0.083900000000     0.788200000000     0.309000000000     0.33       
C        C      0.169300000000     0.845400000000     0.327080000000     0.478      
N        N      0.102145000000     0.877066666667     0.318880000000    -0.147      
O        O      0.060715000000     0.791766666667     0.298540000000    -0.391      
O        O      0.093400000000     0.760266666667     0.315440000000    -0.382      
O        O      0.180975000000     0.819900000000     0.319180000000    -0.481      
O        O      0.179790000000     0.871833333333     0.338180000000    -0.465      
O        O      0.022275000000     0.713266666667     0.241860000000    -0.431      
O        O      0.007740000000     0.753500000000     0.284380000000    -0.445      
Tb       Tb     0.301795000000     0.897716666667     0.302314000000     1.587      
C        C      0.339200000000     0.682366666667     0.313820000000     0.091      
H        H      0.321550000000     0.683666666667     0.310340000000     0.018      
C        C      0.350250000000     0.984933333333     0.313380000000    -0.139      
C        C      0.376700000000     0.982900000000     0.317860000000     0.112      
H        H      0.384850000000     0.962633333333     0.317920000000     0          
C        C      0.390680000000     0.678500000000     0.322240000000    -0.205      
C        C      0.377550000000     0.708100000000     0.323080000000     0.116      
H        H      0.386900000000     0.727333333333     0.326740000000     0.013      
C        C      0.333900000000     0.954866666667     0.309000000000     0.33       
C        C      0.419300000000     0.678733333333     0.327080000000     0.477      
N        N      0.352145000000     0.710400000000     0.318880000000    -0.147      
O        O      0.310715000000     0.958433333333     0.298540000000    -0.388      
O        O      0.343400000000     0.926933333333     0.315440000000    -0.383      
O        O      0.430975000000     0.986566666667     0.319180000000    -0.481      
O        O      0.429790000000     0.705166666667     0.338180000000    -0.463      
O        O      0.272275000000     0.879933333333     0.241860000000    -0.44       
O        O      0.257740000000     0.920166666667     0.284380000000    -0.449      
Tb       Tb     0.051795000000     0.935616666667     0.202314000000     1.567      
C        C      0.089200000000     0.817633333333     0.213820000000     0.092      
H        H      0.071550000000     0.816333333333     0.210340000000     0.015      
C        C      0.100250000000     0.848400000000     0.213380000000    -0.14       
C        C      0.126700000000     0.850433333333     0.217860000000     0.112      
H        H      0.134850000000     0.870700000000     0.217920000000     0          
C        C      0.140680000000     0.821500000000     0.222240000000    -0.205      
C        C      0.127550000000     0.791900000000     0.223080000000     0.117      
H        H      0.136900000000     0.772666666667     0.226740000000     0.013      
C        C      0.083900000000     0.878466666667     0.209000000000     0.328      
C        C      0.169300000000     0.821266666667     0.227080000000     0.478      
N        N      0.102145000000     0.789600000000     0.218880000000    -0.147      
O        O      0.060715000000     0.874900000000     0.398540000000    -0.388      
O        O      0.093400000000     0.906400000000     0.215440000000    -0.382      
O        O      0.180975000000     0.846766666667     0.219180000000    -0.481      
O        O      0.179790000000     0.794833333333     0.238180000000    -0.465      
O        O      0.022275000000     0.953400000000     0.341860000000    -0.43       
O        O      0.007740000000     0.913166666667     0.384380000000    -0.443      
Tb       Tb     0.301795000000     0.768950000000     0.202314000000     1.587      
C        C      0.339200000000     0.984300000000     0.213820000000     0.089      
H        H      0.321550000000     0.983000000000     0.210340000000     0.018      
C        C      0.350250000000     0.681733333333     0.213380000000    -0.138      
C        C      0.376700000000     0.683766666667     0.217860000000     0.113      
H        H      0.384850000000     0.704033333333     0.217920000000     0.001      
C        C      0.390680000000     0.988166666667     0.222240000000    -0.206      
C        C      0.377550000000     0.958566666667     0.223080000000     0.116      
H        H      0.386900000000     0.939333333333     0.226740000000     0.013      
C        C      0.333900000000     0.711800000000     0.209000000000     0.33       
C        C      0.419300000000     0.987933333333     0.227080000000     0.476      
N        N      0.352145000000     0.956266666667     0.218880000000    -0.147      
O        O      0.310715000000     0.708233333333     0.398540000000    -0.388      
O        O      0.343400000000     0.739733333333     0.215440000000    -0.382      
O        O      0.430975000000     0.680100000000     0.219180000000    -0.478      
O        O      0.429790000000     0.961500000000     0.238180000000    -0.463      
O        O      0.272275000000     0.786733333333     0.341860000000    -0.44       
O        O      0.257740000000     0.746500000000     0.384380000000    -0.449      
Tb       Tb     0.448205000000     0.935616666667     0.297686000000     1.595      
C        C      0.410800000000     0.817633333333     0.286180000000     0.091      
H        H      0.428450000000     0.816333333333     0.289660000000     0.021      
C        C      0.399750000000     0.848400000000     0.286620000000    -0.138      
C        C      0.373300000000     0.850433333333     0.282140000000     0.112      
H        H      0.365150000000     0.870700000000     0.282080000000     0.001      
C        C      0.359320000000     0.821500000000     0.277760000000    -0.204      
C        C      0.372450000000     0.791900000000     0.276920000000     0.116      
H        H      0.363100000000     0.772666666667     0.273260000000     0.013      
C        C      0.416100000000     0.878466666667     0.291000000000     0.329      
C        C      0.330700000000     0.821266666667     0.272920000000     0.478      
N        N      0.397855000000     0.789600000000     0.281120000000    -0.146      
O        O      0.439285000000     0.874900000000     0.301460000000    -0.385      
O        O      0.406600000000     0.906400000000     0.284560000000    -0.383      
O        O      0.319025000000     0.846766666667     0.280820000000    -0.481      
O        O      0.320210000000     0.794833333333     0.261820000000    -0.465      
O        O      0.477725000000     0.953400000000     0.358140000000    -0.404      
O        O      0.492260000000     0.913166666667     0.315620000000    -0.407      
Tb       Tb     0.198205000000     0.768950000000     0.297686000000     1.587      
C        C      0.160800000000     0.984300000000     0.286180000000     0.091      
H        H      0.178450000000     0.983000000000     0.289660000000     0.018      
C        C      0.149750000000     0.681733333333     0.286620000000    -0.139      
C        C      0.123300000000     0.683766666667     0.282140000000     0.112      
H        H      0.115150000000     0.704033333333     0.282080000000     0.001      
C        C      0.109320000000     0.988166666667     0.277760000000    -0.204      
C        C      0.122450000000     0.958566666667     0.276920000000     0.116      
H        H      0.113100000000     0.939333333333     0.273260000000     0.013      
C        C      0.166100000000     0.711800000000     0.291000000000     0.33       
C        C      0.080700000000     0.987933333333     0.272920000000     0.476      
N        N      0.147855000000     0.956266666667     0.281120000000    -0.147      
O        O      0.189285000000     0.708233333333     0.301460000000    -0.388      
O        O      0.156600000000     0.739733333333     0.284560000000    -0.382      
O        O      0.069025000000     0.680100000000     0.280820000000    -0.481      
O        O      0.070210000000     0.961500000000     0.261820000000    -0.465      
O        O      0.227725000000     0.786733333333     0.358140000000    -0.44       
O        O      0.242260000000     0.746500000000     0.315620000000    -0.449      
S        S      0.000000000000     0.733773333333     0.250000000000     0.612      
S        S      0.250000000000     0.900440000000     0.250000000000     0.701      
S        S      0.000000000000     0.932893333333     0.350000000000     0.615      
S        S      0.250000000000     0.766226666667     0.350000000000     0.701      
Tb       Tb     0.448205000000     0.731050000000     0.597686000000     1.589      
C        C      0.410800000000     0.849033333333     0.586180000000     0.09       
H        H      0.428450000000     0.850333333333     0.589660000000     0.021      
C        C      0.399750000000     0.818266666667     0.586620000000    -0.137      
C        C      0.373300000000     0.816233333333     0.582140000000     0.111      
H        H      0.365150000000     0.795966666667     0.582080000000     0.001      
C        C      0.359320000000     0.845166666667     0.577760000000    -0.204      
C        C      0.372450000000     0.874766666667     0.576920000000     0.116      
H        H      0.363100000000     0.894000000000     0.573260000000     0.013      
C        C      0.416100000000     0.788200000000     0.591000000000     0.326      
C        C      0.330700000000     0.845400000000     0.572920000000     0.478      
N        N      0.397855000000     0.877066666667     0.581120000000    -0.146      
O        O      0.439285000000     0.791766666667     0.401460000000    -0.382      
O        O      0.406600000000     0.760266666667     0.584560000000    -0.382      
O        O      0.319025000000     0.819900000000     0.580820000000    -0.481      
O        O      0.320210000000     0.871833333333     0.561820000000    -0.465      
O        O      0.477725000000     0.713266666667     0.458140000000    -0.402      
O        O      0.492260000000     0.753500000000     0.415620000000    -0.404      
Tb       Tb     0.198205000000     0.897716666667     0.597686000000     1.587      
C        C      0.160800000000     0.682366666667     0.586180000000     0.089      
H        H      0.178450000000     0.683666666667     0.589660000000     0.018      
C        C      0.149750000000     0.984933333333     0.586620000000    -0.138      
C        C      0.123300000000     0.982900000000     0.582140000000     0.113      
H        H      0.115150000000     0.962633333333     0.582080000000     0.001      
C        C      0.109320000000     0.678500000000     0.577760000000    -0.205      
C        C      0.122450000000     0.708100000000     0.576920000000     0.116      
H        H      0.113100000000     0.727333333333     0.573260000000     0.013      
C        C      0.166100000000     0.954866666667     0.591000000000     0.33       
C        C      0.080700000000     0.678733333333     0.572920000000     0.475      
N        N      0.147855000000     0.710400000000     0.581120000000    -0.146      
O        O      0.189285000000     0.958433333333     0.401460000000    -0.388      
O        O      0.156600000000     0.926933333333     0.584560000000    -0.382      
O        O      0.069025000000     0.986566666667     0.580820000000    -0.479      
O        O      0.070210000000     0.705166666667     0.561820000000    -0.465      
O        O      0.227725000000     0.879933333333     0.458140000000    -0.44       
O        O      0.242260000000     0.920166666667     0.415620000000    -0.449      
Tb       Tb     0.051795000000     0.731050000000     0.502314000000     1.573      
C        C      0.089200000000     0.849033333333     0.513820000000     0.093      
H        H      0.071550000000     0.850333333333     0.510340000000     0.016      
C        C      0.100250000000     0.818266666667     0.513380000000    -0.141      
C        C      0.126700000000     0.816233333333     0.517860000000     0.113      
H        H      0.134850000000     0.795966666667     0.517920000000     0          
C        C      0.140680000000     0.845166666667     0.522240000000    -0.205      
C        C      0.127550000000     0.874766666667     0.523080000000     0.117      
H        H      0.136900000000     0.894000000000     0.526740000000     0.013      
C        C      0.083900000000     0.788200000000     0.509000000000     0.33       
C        C      0.169300000000     0.845400000000     0.527080000000     0.478      
N        N      0.102145000000     0.877066666667     0.518880000000    -0.147      
O        O      0.060715000000     0.791766666667     0.498540000000    -0.391      
O        O      0.093400000000     0.760266666667     0.515440000000    -0.382      
O        O      0.180975000000     0.819900000000     0.519180000000    -0.481      
O        O      0.179790000000     0.871833333333     0.538180000000    -0.465      
O        O      0.022275000000     0.713266666667     0.441860000000    -0.431      
O        O      0.007740000000     0.753500000000     0.484380000000    -0.445      
Tb       Tb     0.301795000000     0.897716666667     0.502314000000     1.587      
C        C      0.339200000000     0.682366666667     0.513820000000     0.091      
H        H      0.321550000000     0.683666666667     0.510340000000     0.018      
C        C      0.350250000000     0.984933333333     0.513380000000    -0.139      
C        C      0.376700000000     0.982900000000     0.517860000000     0.112      
H        H      0.384850000000     0.962633333333     0.517920000000     0          
C        C      0.390680000000     0.678500000000     0.522240000000    -0.205      
C        C      0.377550000000     0.708100000000     0.523080000000     0.116      
H        H      0.386900000000     0.727333333333     0.526740000000     0.013      
C        C      0.333900000000     0.954866666667     0.509000000000     0.33       
C        C      0.419300000000     0.678733333333     0.527080000000     0.477      
N        N      0.352145000000     0.710400000000     0.518880000000    -0.147      
O        O      0.310715000000     0.958433333333     0.498540000000    -0.388      
O        O      0.343400000000     0.926933333333     0.515440000000    -0.383      
O        O      0.430975000000     0.986566666667     0.519180000000    -0.481      
O        O      0.429790000000     0.705166666667     0.538180000000    -0.463      
O        O      0.272275000000     0.879933333333     0.441860000000    -0.44       
O        O      0.257740000000     0.920166666667     0.484380000000    -0.449      
Tb       Tb     0.051795000000     0.935616666667     0.402314000000     1.567      
C        C      0.089200000000     0.817633333333     0.413820000000     0.092      
H        H      0.071550000000     0.816333333333     0.410340000000     0.015      
C        C      0.100250000000     0.848400000000     0.413380000000    -0.14       
C        C      0.126700000000     0.850433333333     0.417860000000     0.112      
H        H      0.134850000000     0.870700000000     0.417920000000     0          
C        C      0.140680000000     0.821500000000     0.422240000000    -0.205      
C        C      0.127550000000     0.791900000000     0.423080000000     0.117      
H        H      0.136900000000     0.772666666667     0.426740000000     0.013      
C        C      0.083900000000     0.878466666667     0.409000000000     0.328      
C        C      0.169300000000     0.821266666667     0.427080000000     0.478      
N        N      0.102145000000     0.789600000000     0.418880000000    -0.147      
O        O      0.060715000000     0.874900000000     0.598540000000    -0.388      
O        O      0.093400000000     0.906400000000     0.415440000000    -0.382      
O        O      0.180975000000     0.846766666667     0.419180000000    -0.481      
O        O      0.179790000000     0.794833333333     0.438180000000    -0.465      
O        O      0.022275000000     0.953400000000     0.541860000000    -0.43       
O        O      0.007740000000     0.913166666667     0.584380000000    -0.443      
Tb       Tb     0.301795000000     0.768950000000     0.402314000000     1.587      
C        C      0.339200000000     0.984300000000     0.413820000000     0.089      
H        H      0.321550000000     0.983000000000     0.410340000000     0.018      
C        C      0.350250000000     0.681733333333     0.413380000000    -0.138      
C        C      0.376700000000     0.683766666667     0.417860000000     0.113      
H        H      0.384850000000     0.704033333333     0.417920000000     0.001      
C        C      0.390680000000     0.988166666667     0.422240000000    -0.206      
C        C      0.377550000000     0.958566666667     0.423080000000     0.116      
H        H      0.386900000000     0.939333333333     0.426740000000     0.013      
C        C      0.333900000000     0.711800000000     0.409000000000     0.33       
C        C      0.419300000000     0.987933333333     0.427080000000     0.476      
N        N      0.352145000000     0.956266666667     0.418880000000    -0.147      
O        O      0.310715000000     0.708233333333     0.598540000000    -0.388      
O        O      0.343400000000     0.739733333333     0.415440000000    -0.382      
O        O      0.430975000000     0.680100000000     0.419180000000    -0.478      
O        O      0.429790000000     0.961500000000     0.438180000000    -0.463      
O        O      0.272275000000     0.786733333333     0.541860000000    -0.44       
O        O      0.257740000000     0.746500000000     0.584380000000    -0.449      
Tb       Tb     0.448205000000     0.935616666667     0.497686000000     1.595      
C        C      0.410800000000     0.817633333333     0.486180000000     0.091      
H        H      0.428450000000     0.816333333333     0.489660000000     0.021      
C        C      0.399750000000     0.848400000000     0.486620000000    -0.138      
C        C      0.373300000000     0.850433333333     0.482140000000     0.112      
H        H      0.365150000000     0.870700000000     0.482080000000     0.001      
C        C      0.359320000000     0.821500000000     0.477760000000    -0.204      
C        C      0.372450000000     0.791900000000     0.476920000000     0.116      
H        H      0.363100000000     0.772666666667     0.473260000000     0.013      
C        C      0.416100000000     0.878466666667     0.491000000000     0.329      
C        C      0.330700000000     0.821266666667     0.472920000000     0.478      
N        N      0.397855000000     0.789600000000     0.481120000000    -0.146      
O        O      0.439285000000     0.874900000000     0.501460000000    -0.385      
O        O      0.406600000000     0.906400000000     0.484560000000    -0.383      
O        O      0.319025000000     0.846766666667     0.480820000000    -0.481      
O        O      0.320210000000     0.794833333333     0.461820000000    -0.465      
O        O      0.477725000000     0.953400000000     0.558140000000    -0.404      
O        O      0.492260000000     0.913166666667     0.515620000000    -0.407      
Tb       Tb     0.198205000000     0.768950000000     0.497686000000     1.587      
C        C      0.160800000000     0.984300000000     0.486180000000     0.091      
H        H      0.178450000000     0.983000000000     0.489660000000     0.018      
C        C      0.149750000000     0.681733333333     0.486620000000    -0.139      
C        C      0.123300000000     0.683766666667     0.482140000000     0.112      
H        H      0.115150000000     0.704033333333     0.482080000000     0.001      
C        C      0.109320000000     0.988166666667     0.477760000000    -0.204      
C        C      0.122450000000     0.958566666667     0.476920000000     0.116      
H        H      0.113100000000     0.939333333333     0.473260000000     0.013      
C        C      0.166100000000     0.711800000000     0.491000000000     0.33       
C        C      0.080700000000     0.987933333333     0.472920000000     0.476      
N        N      0.147855000000     0.956266666667     0.481120000000    -0.147      
O        O      0.189285000000     0.708233333333     0.501460000000    -0.388      
O        O      0.156600000000     0.739733333333     0.484560000000    -0.382      
O        O      0.069025000000     0.680100000000     0.480820000000    -0.481      
O        O      0.070210000000     0.961500000000     0.461820000000    -0.465      
O        O      0.227725000000     0.786733333333     0.558140000000    -0.44       
O        O      0.242260000000     0.746500000000     0.515620000000    -0.449      
S        S      0.000000000000     0.733773333333     0.450000000000     0.612      
S        S      0.250000000000     0.900440000000     0.450000000000     0.701      
S        S      0.000000000000     0.932893333333     0.550000000000     0.615      
S        S      0.250000000000     0.766226666667     0.550000000000     0.701      
Tb       Tb     0.448205000000     0.731050000000     0.797686000000     1.589      
C        C      0.410800000000     0.849033333333     0.786180000000     0.09       
H        H      0.428450000000     0.850333333333     0.789660000000     0.021      
C        C      0.399750000000     0.818266666667     0.786620000000    -0.137      
C        C      0.373300000000     0.816233333333     0.782140000000     0.111      
H        H      0.365150000000     0.795966666667     0.782080000000     0.001      
C        C      0.359320000000     0.845166666667     0.777760000000    -0.204      
C        C      0.372450000000     0.874766666667     0.776920000000     0.116      
H        H      0.363100000000     0.894000000000     0.773260000000     0.013      
C        C      0.416100000000     0.788200000000     0.791000000000     0.326      
C        C      0.330700000000     0.845400000000     0.772920000000     0.478      
N        N      0.397855000000     0.877066666667     0.781120000000    -0.146      
O        O      0.439285000000     0.791766666667     0.601460000000    -0.382      
O        O      0.406600000000     0.760266666667     0.784560000000    -0.382      
O        O      0.319025000000     0.819900000000     0.780820000000    -0.481      
O        O      0.320210000000     0.871833333333     0.761820000000    -0.465      
O        O      0.477725000000     0.713266666667     0.658140000000    -0.402      
O        O      0.492260000000     0.753500000000     0.615620000000    -0.404      
Tb       Tb     0.198205000000     0.897716666667     0.797686000000     1.587      
C        C      0.160800000000     0.682366666667     0.786180000000     0.089      
H        H      0.178450000000     0.683666666667     0.789660000000     0.018      
C        C      0.149750000000     0.984933333333     0.786620000000    -0.138      
C        C      0.123300000000     0.982900000000     0.782140000000     0.113      
H        H      0.115150000000     0.962633333333     0.782080000000     0.001      
C        C      0.109320000000     0.678500000000     0.777760000000    -0.205      
C        C      0.122450000000     0.708100000000     0.776920000000     0.116      
H        H      0.113100000000     0.727333333333     0.773260000000     0.013      
C        C      0.166100000000     0.954866666667     0.791000000000     0.33       
C        C      0.080700000000     0.678733333333     0.772920000000     0.475      
N        N      0.147855000000     0.710400000000     0.781120000000    -0.146      
O        O      0.189285000000     0.958433333333     0.601460000000    -0.388      
O        O      0.156600000000     0.926933333333     0.784560000000    -0.382      
O        O      0.069025000000     0.986566666667     0.780820000000    -0.479      
O        O      0.070210000000     0.705166666667     0.761820000000    -0.465      
O        O      0.227725000000     0.879933333333     0.658140000000    -0.44       
O        O      0.242260000000     0.920166666667     0.615620000000    -0.449      
Tb       Tb     0.051795000000     0.731050000000     0.702314000000     1.573      
C        C      0.089200000000     0.849033333333     0.713820000000     0.093      
H        H      0.071550000000     0.850333333333     0.710340000000     0.016      
C        C      0.100250000000     0.818266666667     0.713380000000    -0.141      
C        C      0.126700000000     0.816233333333     0.717860000000     0.113      
H        H      0.134850000000     0.795966666667     0.717920000000     0          
C        C      0.140680000000     0.845166666667     0.722240000000    -0.205      
C        C      0.127550000000     0.874766666667     0.723080000000     0.117      
H        H      0.136900000000     0.894000000000     0.726740000000     0.013      
C        C      0.083900000000     0.788200000000     0.709000000000     0.33       
C        C      0.169300000000     0.845400000000     0.727080000000     0.478      
N        N      0.102145000000     0.877066666667     0.718880000000    -0.147      
O        O      0.060715000000     0.791766666667     0.698540000000    -0.391      
O        O      0.093400000000     0.760266666667     0.715440000000    -0.382      
O        O      0.180975000000     0.819900000000     0.719180000000    -0.481      
O        O      0.179790000000     0.871833333333     0.738180000000    -0.465      
O        O      0.022275000000     0.713266666667     0.641860000000    -0.431      
O        O      0.007740000000     0.753500000000     0.684380000000    -0.445      
Tb       Tb     0.301795000000     0.897716666667     0.702314000000     1.587      
C        C      0.339200000000     0.682366666667     0.713820000000     0.091      
H        H      0.321550000000     0.683666666667     0.710340000000     0.018      
C        C      0.350250000000     0.984933333333     0.713380000000    -0.139      
C        C      0.376700000000     0.982900000000     0.717860000000     0.112      
H        H      0.384850000000     0.962633333333     0.717920000000     0          
C        C      0.390680000000     0.678500000000     0.722240000000    -0.205      
C        C      0.377550000000     0.708100000000     0.723080000000     0.116      
H        H      0.386900000000     0.727333333333     0.726740000000     0.013      
C        C      0.333900000000     0.954866666667     0.709000000000     0.33       
C        C      0.419300000000     0.678733333333     0.727080000000     0.477      
N        N      0.352145000000     0.710400000000     0.718880000000    -0.147      
O        O      0.310715000000     0.958433333333     0.698540000000    -0.388      
O        O      0.343400000000     0.926933333333     0.715440000000    -0.383      
O        O      0.430975000000     0.986566666667     0.719180000000    -0.481      
O        O      0.429790000000     0.705166666667     0.738180000000    -0.463      
O        O      0.272275000000     0.879933333333     0.641860000000    -0.44       
O        O      0.257740000000     0.920166666667     0.684380000000    -0.449      
Tb       Tb     0.051795000000     0.935616666667     0.602314000000     1.567      
C        C      0.089200000000     0.817633333333     0.613820000000     0.092      
H        H      0.071550000000     0.816333333333     0.610340000000     0.015      
C        C      0.100250000000     0.848400000000     0.613380000000    -0.14       
C        C      0.126700000000     0.850433333333     0.617860000000     0.112      
H        H      0.134850000000     0.870700000000     0.617920000000     0          
C        C      0.140680000000     0.821500000000     0.622240000000    -0.205      
C        C      0.127550000000     0.791900000000     0.623080000000     0.117      
H        H      0.136900000000     0.772666666667     0.626740000000     0.013      
C        C      0.083900000000     0.878466666667     0.609000000000     0.328      
C        C      0.169300000000     0.821266666667     0.627080000000     0.478      
N        N      0.102145000000     0.789600000000     0.618880000000    -0.147      
O        O      0.060715000000     0.874900000000     0.798540000000    -0.388      
O        O      0.093400000000     0.906400000000     0.615440000000    -0.382      
O        O      0.180975000000     0.846766666667     0.619180000000    -0.481      
O        O      0.179790000000     0.794833333333     0.638180000000    -0.465      
O        O      0.022275000000     0.953400000000     0.741860000000    -0.43       
O        O      0.007740000000     0.913166666667     0.784380000000    -0.443      
Tb       Tb     0.301795000000     0.768950000000     0.602314000000     1.587      
C        C      0.339200000000     0.984300000000     0.613820000000     0.089      
H        H      0.321550000000     0.983000000000     0.610340000000     0.018      
C        C      0.350250000000     0.681733333333     0.613380000000    -0.138      
C        C      0.376700000000     0.683766666667     0.617860000000     0.113      
H        H      0.384850000000     0.704033333333     0.617920000000     0.001      
C        C      0.390680000000     0.988166666667     0.622240000000    -0.206      
C        C      0.377550000000     0.958566666667     0.623080000000     0.116      
H        H      0.386900000000     0.939333333333     0.626740000000     0.013      
C        C      0.333900000000     0.711800000000     0.609000000000     0.33       
C        C      0.419300000000     0.987933333333     0.627080000000     0.476      
N        N      0.352145000000     0.956266666667     0.618880000000    -0.147      
O        O      0.310715000000     0.708233333333     0.798540000000    -0.388      
O        O      0.343400000000     0.739733333333     0.615440000000    -0.382      
O        O      0.430975000000     0.680100000000     0.619180000000    -0.478      
O        O      0.429790000000     0.961500000000     0.638180000000    -0.463      
O        O      0.272275000000     0.786733333333     0.741860000000    -0.44       
O        O      0.257740000000     0.746500000000     0.784380000000    -0.449      
Tb       Tb     0.448205000000     0.935616666667     0.697686000000     1.595      
C        C      0.410800000000     0.817633333333     0.686180000000     0.091      
H        H      0.428450000000     0.816333333333     0.689660000000     0.021      
C        C      0.399750000000     0.848400000000     0.686620000000    -0.138      
C        C      0.373300000000     0.850433333333     0.682140000000     0.112      
H        H      0.365150000000     0.870700000000     0.682080000000     0.001      
C        C      0.359320000000     0.821500000000     0.677760000000    -0.204      
C        C      0.372450000000     0.791900000000     0.676920000000     0.116      
H        H      0.363100000000     0.772666666667     0.673260000000     0.013      
C        C      0.416100000000     0.878466666667     0.691000000000     0.329      
C        C      0.330700000000     0.821266666667     0.672920000000     0.478      
N        N      0.397855000000     0.789600000000     0.681120000000    -0.146      
O        O      0.439285000000     0.874900000000     0.701460000000    -0.385      
O        O      0.406600000000     0.906400000000     0.684560000000    -0.383      
O        O      0.319025000000     0.846766666667     0.680820000000    -0.481      
O        O      0.320210000000     0.794833333333     0.661820000000    -0.465      
O        O      0.477725000000     0.953400000000     0.758140000000    -0.404      
O        O      0.492260000000     0.913166666667     0.715620000000    -0.407      
Tb       Tb     0.198205000000     0.768950000000     0.697686000000     1.587      
C        C      0.160800000000     0.984300000000     0.686180000000     0.091      
H        H      0.178450000000     0.983000000000     0.689660000000     0.018      
C        C      0.149750000000     0.681733333333     0.686620000000    -0.139      
C        C      0.123300000000     0.683766666667     0.682140000000     0.112      
H        H      0.115150000000     0.704033333333     0.682080000000     0.001      
C        C      0.109320000000     0.988166666667     0.677760000000    -0.204      
C        C      0.122450000000     0.958566666667     0.676920000000     0.116      
H        H      0.113100000000     0.939333333333     0.673260000000     0.013      
C        C      0.166100000000     0.711800000000     0.691000000000     0.33       
C        C      0.080700000000     0.987933333333     0.672920000000     0.476      
N        N      0.147855000000     0.956266666667     0.681120000000    -0.147      
O        O      0.189285000000     0.708233333333     0.701460000000    -0.388      
O        O      0.156600000000     0.739733333333     0.684560000000    -0.382      
O        O      0.069025000000     0.680100000000     0.680820000000    -0.481      
O        O      0.070210000000     0.961500000000     0.661820000000    -0.465      
O        O      0.227725000000     0.786733333333     0.758140000000    -0.44       
O        O      0.242260000000     0.746500000000     0.715620000000    -0.449      
S        S      0.000000000000     0.733773333333     0.650000000000     0.612      
S        S      0.250000000000     0.900440000000     0.650000000000     0.701      
S        S      0.000000000000     0.932893333333     0.750000000000     0.615      
S        S      0.250000000000     0.766226666667     0.750000000000     0.701      
Tb       Tb     0.448205000000     0.731050000000     0.997686000000     1.589      
C        C      0.410800000000     0.849033333333     0.986180000000     0.09       
H        H      0.428450000000     0.850333333333     0.989660000000     0.021      
C        C      0.399750000000     0.818266666667     0.986620000000    -0.137      
C        C      0.373300000000     0.816233333333     0.982140000000     0.111      
H        H      0.365150000000     0.795966666667     0.982080000000     0.001      
C        C      0.359320000000     0.845166666667     0.977760000000    -0.204      
C        C      0.372450000000     0.874766666667     0.976920000000     0.116      
H        H      0.363100000000     0.894000000000     0.973260000000     0.013      
C        C      0.416100000000     0.788200000000     0.991000000000     0.326      
C        C      0.330700000000     0.845400000000     0.972920000000     0.478      
N        N      0.397855000000     0.877066666667     0.981120000000    -0.146      
O        O      0.439285000000     0.791766666667     0.801460000000    -0.382      
O        O      0.406600000000     0.760266666667     0.984560000000    -0.382      
O        O      0.319025000000     0.819900000000     0.980820000000    -0.481      
O        O      0.320210000000     0.871833333333     0.961820000000    -0.465      
O        O      0.477725000000     0.713266666667     0.858140000000    -0.402      
O        O      0.492260000000     0.753500000000     0.815620000000    -0.404      
Tb       Tb     0.198205000000     0.897716666667     0.997686000000     1.587      
C        C      0.160800000000     0.682366666667     0.986180000000     0.089      
H        H      0.178450000000     0.683666666667     0.989660000000     0.018      
C        C      0.149750000000     0.984933333333     0.986620000000    -0.138      
C        C      0.123300000000     0.982900000000     0.982140000000     0.113      
H        H      0.115150000000     0.962633333333     0.982080000000     0.001      
C        C      0.109320000000     0.678500000000     0.977760000000    -0.205      
C        C      0.122450000000     0.708100000000     0.976920000000     0.116      
H        H      0.113100000000     0.727333333333     0.973260000000     0.013      
C        C      0.166100000000     0.954866666667     0.991000000000     0.33       
C        C      0.080700000000     0.678733333333     0.972920000000     0.475      
N        N      0.147855000000     0.710400000000     0.981120000000    -0.146      
O        O      0.189285000000     0.958433333333     0.801460000000    -0.388      
O        O      0.156600000000     0.926933333333     0.984560000000    -0.382      
O        O      0.069025000000     0.986566666667     0.980820000000    -0.479      
O        O      0.070210000000     0.705166666667     0.961820000000    -0.465      
O        O      0.227725000000     0.879933333333     0.858140000000    -0.44       
O        O      0.242260000000     0.920166666667     0.815620000000    -0.449      
Tb       Tb     0.051795000000     0.731050000000     0.902314000000     1.573      
C        C      0.089200000000     0.849033333333     0.913820000000     0.093      
H        H      0.071550000000     0.850333333333     0.910340000000     0.016      
C        C      0.100250000000     0.818266666667     0.913380000000    -0.141      
C        C      0.126700000000     0.816233333333     0.917860000000     0.113      
H        H      0.134850000000     0.795966666667     0.917920000000     0          
C        C      0.140680000000     0.845166666667     0.922240000000    -0.205      
C        C      0.127550000000     0.874766666667     0.923080000000     0.117      
H        H      0.136900000000     0.894000000000     0.926740000000     0.013      
C        C      0.083900000000     0.788200000000     0.909000000000     0.33       
C        C      0.169300000000     0.845400000000     0.927080000000     0.478      
N        N      0.102145000000     0.877066666667     0.918880000000    -0.147      
O        O      0.060715000000     0.791766666667     0.898540000000    -0.391      
O        O      0.093400000000     0.760266666667     0.915440000000    -0.382      
O        O      0.180975000000     0.819900000000     0.919180000000    -0.481      
O        O      0.179790000000     0.871833333333     0.938180000000    -0.465      
O        O      0.022275000000     0.713266666667     0.841860000000    -0.431      
O        O      0.007740000000     0.753500000000     0.884380000000    -0.445      
Tb       Tb     0.301795000000     0.897716666667     0.902314000000     1.587      
C        C      0.339200000000     0.682366666667     0.913820000000     0.091      
H        H      0.321550000000     0.683666666667     0.910340000000     0.018      
C        C      0.350250000000     0.984933333333     0.913380000000    -0.139      
C        C      0.376700000000     0.982900000000     0.917860000000     0.112      
H        H      0.384850000000     0.962633333333     0.917920000000     0          
C        C      0.390680000000     0.678500000000     0.922240000000    -0.205      
C        C      0.377550000000     0.708100000000     0.923080000000     0.116      
H        H      0.386900000000     0.727333333333     0.926740000000     0.013      
C        C      0.333900000000     0.954866666667     0.909000000000     0.33       
C        C      0.419300000000     0.678733333333     0.927080000000     0.477      
N        N      0.352145000000     0.710400000000     0.918880000000    -0.147      
O        O      0.310715000000     0.958433333333     0.898540000000    -0.388      
O        O      0.343400000000     0.926933333333     0.915440000000    -0.383      
O        O      0.430975000000     0.986566666667     0.919180000000    -0.481      
O        O      0.429790000000     0.705166666667     0.938180000000    -0.463      
O        O      0.272275000000     0.879933333333     0.841860000000    -0.44       
O        O      0.257740000000     0.920166666667     0.884380000000    -0.449      
Tb       Tb     0.051795000000     0.935616666667     0.802314000000     1.567      
C        C      0.089200000000     0.817633333333     0.813820000000     0.092      
H        H      0.071550000000     0.816333333333     0.810340000000     0.015      
C        C      0.100250000000     0.848400000000     0.813380000000    -0.14       
C        C      0.126700000000     0.850433333333     0.817860000000     0.112      
H        H      0.134850000000     0.870700000000     0.817920000000     0          
C        C      0.140680000000     0.821500000000     0.822240000000    -0.205      
C        C      0.127550000000     0.791900000000     0.823080000000     0.117      
H        H      0.136900000000     0.772666666667     0.826740000000     0.013      
C        C      0.083900000000     0.878466666667     0.809000000000     0.328      
C        C      0.169300000000     0.821266666667     0.827080000000     0.478      
N        N      0.102145000000     0.789600000000     0.818880000000    -0.147      
O        O      0.060715000000     0.874900000000     0.998540000000    -0.388      
O        O      0.093400000000     0.906400000000     0.815440000000    -0.382      
O        O      0.180975000000     0.846766666667     0.819180000000    -0.481      
O        O      0.179790000000     0.794833333333     0.838180000000    -0.465      
O        O      0.022275000000     0.953400000000     0.941860000000    -0.43       
O        O      0.007740000000     0.913166666667     0.984380000000    -0.443      
Tb       Tb     0.301795000000     0.768950000000     0.802314000000     1.587      
C        C      0.339200000000     0.984300000000     0.813820000000     0.089      
H        H      0.321550000000     0.983000000000     0.810340000000     0.018      
C        C      0.350250000000     0.681733333333     0.813380000000    -0.138      
C        C      0.376700000000     0.683766666667     0.817860000000     0.113      
H        H      0.384850000000     0.704033333333     0.817920000000     0.001      
C        C      0.390680000000     0.988166666667     0.822240000000    -0.206      
C        C      0.377550000000     0.958566666667     0.823080000000     0.116      
H        H      0.386900000000     0.939333333333     0.826740000000     0.013      
C        C      0.333900000000     0.711800000000     0.809000000000     0.33       
C        C      0.419300000000     0.987933333333     0.827080000000     0.476      
N        N      0.352145000000     0.956266666667     0.818880000000    -0.147      
O        O      0.310715000000     0.708233333333     0.998540000000    -0.388      
O        O      0.343400000000     0.739733333333     0.815440000000    -0.382      
O        O      0.430975000000     0.680100000000     0.819180000000    -0.478      
O        O      0.429790000000     0.961500000000     0.838180000000    -0.463      
O        O      0.272275000000     0.786733333333     0.941860000000    -0.44       
O        O      0.257740000000     0.746500000000     0.984380000000    -0.449      
Tb       Tb     0.448205000000     0.935616666667     0.897686000000     1.595      
C        C      0.410800000000     0.817633333333     0.886180000000     0.091      
H        H      0.428450000000     0.816333333333     0.889660000000     0.021      
C        C      0.399750000000     0.848400000000     0.886620000000    -0.138      
C        C      0.373300000000     0.850433333333     0.882140000000     0.112      
H        H      0.365150000000     0.870700000000     0.882080000000     0.001      
C        C      0.359320000000     0.821500000000     0.877760000000    -0.204      
C        C      0.372450000000     0.791900000000     0.876920000000     0.116      
H        H      0.363100000000     0.772666666667     0.873260000000     0.013      
C        C      0.416100000000     0.878466666667     0.891000000000     0.329      
C        C      0.330700000000     0.821266666667     0.872920000000     0.478      
N        N      0.397855000000     0.789600000000     0.881120000000    -0.146      
O        O      0.439285000000     0.874900000000     0.901460000000    -0.385      
O        O      0.406600000000     0.906400000000     0.884560000000    -0.383      
O        O      0.319025000000     0.846766666667     0.880820000000    -0.481      
O        O      0.320210000000     0.794833333333     0.861820000000    -0.465      
O        O      0.477725000000     0.953400000000     0.958140000000    -0.404      
O        O      0.492260000000     0.913166666667     0.915620000000    -0.407      
Tb       Tb     0.198205000000     0.768950000000     0.897686000000     1.587      
C        C      0.160800000000     0.984300000000     0.886180000000     0.091      
H        H      0.178450000000     0.983000000000     0.889660000000     0.018      
C        C      0.149750000000     0.681733333333     0.886620000000    -0.139      
C        C      0.123300000000     0.683766666667     0.882140000000     0.112      
H        H      0.115150000000     0.704033333333     0.882080000000     0.001      
C        C      0.109320000000     0.988166666667     0.877760000000    -0.204      
C        C      0.122450000000     0.958566666667     0.876920000000     0.116      
H        H      0.113100000000     0.939333333333     0.873260000000     0.013      
C        C      0.166100000000     0.711800000000     0.891000000000     0.33       
C        C      0.080700000000     0.987933333333     0.872920000000     0.476      
N        N      0.147855000000     0.956266666667     0.881120000000    -0.147      
O        O      0.189285000000     0.708233333333     0.901460000000    -0.388      
O        O      0.156600000000     0.739733333333     0.884560000000    -0.382      
O        O      0.069025000000     0.680100000000     0.880820000000    -0.481      
O        O      0.070210000000     0.961500000000     0.861820000000    -0.465      
O        O      0.227725000000     0.786733333333     0.958140000000    -0.44       
O        O      0.242260000000     0.746500000000     0.915620000000    -0.449      
S        S      0.000000000000     0.733773333333     0.850000000000     0.612      
S        S      0.250000000000     0.900440000000     0.850000000000     0.701      
S        S      0.000000000000     0.932893333333     0.950000000000     0.615      
S        S      0.250000000000     0.766226666667     0.950000000000     0.701      
Tb       Tb     0.948205000000     0.064383333333     0.197686000000     1.589      
C        C      0.910800000000     0.182366666667     0.186180000000     0.09       
H        H      0.928450000000     0.183666666667     0.189660000000     0.021      
C        C      0.899750000000     0.151600000000     0.186620000000    -0.137      
C        C      0.873300000000     0.149566666667     0.182140000000     0.111      
H        H      0.865150000000     0.129300000000     0.182080000000     0.001      
C        C      0.859320000000     0.178500000000     0.177760000000    -0.204      
C        C      0.872450000000     0.208100000000     0.176920000000     0.116      
H        H      0.863100000000     0.227333333333     0.173260000000     0.013      
C        C      0.916100000000     0.121533333333     0.191000000000     0.326      
C        C      0.830700000000     0.178733333333     0.172920000000     0.478      
N        N      0.897855000000     0.210400000000     0.181120000000    -0.146      
O        O      0.939285000000     0.125100000000     0.001460000000    -0.382      
O        O      0.906600000000     0.093600000000     0.184560000000    -0.382      
O        O      0.819025000000     0.153233333333     0.180820000000    -0.481      
O        O      0.820210000000     0.205166666667     0.161820000000    -0.465      
O        O      0.977725000000     0.046600000000     0.058140000000    -0.402      
O        O      0.992260000000     0.086833333333     0.015620000000    -0.404      
Tb       Tb     0.698205000000     0.231050000000     0.197686000000     1.587      
C        C      0.660800000000     0.015700000000     0.186180000000     0.089      
H        H      0.678450000000     0.017000000000     0.189660000000     0.018      
C        C      0.649750000000     0.318266666667     0.186620000000    -0.138      
C        C      0.623300000000     0.316233333333     0.182140000000     0.113      
H        H      0.615150000000     0.295966666667     0.182080000000     0.001      
C        C      0.609320000000     0.011833333333     0.177760000000    -0.205      
C        C      0.622450000000     0.041433333333     0.176920000000     0.116      
H        H      0.613100000000     0.060666666667     0.173260000000     0.013      
C        C      0.666100000000     0.288200000000     0.191000000000     0.33       
C        C      0.580700000000     0.012066666667     0.172920000000     0.475      
N        N      0.647855000000     0.043733333333     0.181120000000    -0.146      
O        O      0.689285000000     0.291766666667     0.001460000000    -0.388      
O        O      0.656600000000     0.260266666667     0.184560000000    -0.382      
O        O      0.569025000000     0.319900000000     0.180820000000    -0.479      
O        O      0.570210000000     0.038500000000     0.161820000000    -0.465      
O        O      0.727725000000     0.213266666667     0.058140000000    -0.44       
O        O      0.742260000000     0.253500000000     0.015620000000    -0.449      
Tb       Tb     0.551795000000     0.064383333333     0.102314000000     1.573      
C        C      0.589200000000     0.182366666667     0.113820000000     0.093      
H        H      0.571550000000     0.183666666667     0.110340000000     0.016      
C        C      0.600250000000     0.151600000000     0.113380000000    -0.141      
C        C      0.626700000000     0.149566666667     0.117860000000     0.113      
H        H      0.634850000000     0.129300000000     0.117920000000     0          
C        C      0.640680000000     0.178500000000     0.122240000000    -0.205      
C        C      0.627550000000     0.208100000000     0.123080000000     0.117      
H        H      0.636900000000     0.227333333333     0.126740000000     0.013      
C        C      0.583900000000     0.121533333333     0.109000000000     0.33       
C        C      0.669300000000     0.178733333333     0.127080000000     0.478      
N        N      0.602145000000     0.210400000000     0.118880000000    -0.147      
O        O      0.560715000000     0.125100000000     0.098540000000    -0.391      
O        O      0.593400000000     0.093600000000     0.115440000000    -0.382      
O        O      0.680975000000     0.153233333333     0.119180000000    -0.481      
O        O      0.679790000000     0.205166666667     0.138180000000    -0.465      
O        O      0.522275000000     0.046600000000     0.041860000000    -0.431      
O        O      0.507740000000     0.086833333333     0.084380000000    -0.445      
Tb       Tb     0.801795000000     0.231050000000     0.102314000000     1.587      
C        C      0.839200000000     0.015700000000     0.113820000000     0.091      
H        H      0.821550000000     0.017000000000     0.110340000000     0.018      
C        C      0.850250000000     0.318266666667     0.113380000000    -0.139      
C        C      0.876700000000     0.316233333333     0.117860000000     0.112      
H        H      0.884850000000     0.295966666667     0.117920000000     0          
C        C      0.890680000000     0.011833333333     0.122240000000    -0.205      
C        C      0.877550000000     0.041433333333     0.123080000000     0.116      
H        H      0.886900000000     0.060666666667     0.126740000000     0.013      
C        C      0.833900000000     0.288200000000     0.109000000000     0.33       
C        C      0.919300000000     0.012066666667     0.127080000000     0.477      
N        N      0.852145000000     0.043733333333     0.118880000000    -0.147      
O        O      0.810715000000     0.291766666667     0.098540000000    -0.388      
O        O      0.843400000000     0.260266666667     0.115440000000    -0.383      
O        O      0.930975000000     0.319900000000     0.119180000000    -0.481      
O        O      0.929790000000     0.038500000000     0.138180000000    -0.463      
O        O      0.772275000000     0.213266666667     0.041860000000    -0.44       
O        O      0.757740000000     0.253500000000     0.084380000000    -0.449      
Tb       Tb     0.551795000000     0.268950000000     0.002314000000     1.567      
C        C      0.589200000000     0.150966666667     0.013820000000     0.092      
H        H      0.571550000000     0.149666666667     0.010340000000     0.015      
C        C      0.600250000000     0.181733333333     0.013380000000    -0.14       
C        C      0.626700000000     0.183766666667     0.017860000000     0.112      
H        H      0.634850000000     0.204033333333     0.017920000000     0          
C        C      0.640680000000     0.154833333333     0.022240000000    -0.205      
C        C      0.627550000000     0.125233333333     0.023080000000     0.117      
H        H      0.636900000000     0.106000000000     0.026740000000     0.013      
C        C      0.583900000000     0.211800000000     0.009000000000     0.328      
C        C      0.669300000000     0.154600000000     0.027080000000     0.478      
N        N      0.602145000000     0.122933333333     0.018880000000    -0.147      
O        O      0.560715000000     0.208233333333     0.198540000000    -0.388      
O        O      0.593400000000     0.239733333333     0.015440000000    -0.382      
O        O      0.680975000000     0.180100000000     0.019180000000    -0.481      
O        O      0.679790000000     0.128166666667     0.038180000000    -0.465      
O        O      0.522275000000     0.286733333333     0.141860000000    -0.43       
O        O      0.507740000000     0.246500000000     0.184380000000    -0.443      
Tb       Tb     0.801795000000     0.102283333333     0.002314000000     1.587      
C        C      0.839200000000     0.317633333333     0.013820000000     0.089      
H        H      0.821550000000     0.316333333333     0.010340000000     0.018      
C        C      0.850250000000     0.015066666667     0.013380000000    -0.138      
C        C      0.876700000000     0.017100000000     0.017860000000     0.113      
H        H      0.884850000000     0.037366666667     0.017920000000     0.001      
C        C      0.890680000000     0.321500000000     0.022240000000    -0.206      
C        C      0.877550000000     0.291900000000     0.023080000000     0.116      
H        H      0.886900000000     0.272666666667     0.026740000000     0.013      
C        C      0.833900000000     0.045133333333     0.009000000000     0.33       
C        C      0.919300000000     0.321266666667     0.027080000000     0.476      
N        N      0.852145000000     0.289600000000     0.018880000000    -0.147      
O        O      0.810715000000     0.041566666667     0.198540000000    -0.388      
O        O      0.843400000000     0.073066666667     0.015440000000    -0.382      
O        O      0.930975000000     0.013433333333     0.019180000000    -0.478      
O        O      0.929790000000     0.294833333333     0.038180000000    -0.463      
O        O      0.772275000000     0.120066666667     0.141860000000    -0.44       
O        O      0.757740000000     0.079833333333     0.184380000000    -0.449      
Tb       Tb     0.948205000000     0.268950000000     0.097686000000     1.595      
C        C      0.910800000000     0.150966666667     0.086180000000     0.091      
H        H      0.928450000000     0.149666666667     0.089660000000     0.021      
C        C      0.899750000000     0.181733333333     0.086620000000    -0.138      
C        C      0.873300000000     0.183766666667     0.082140000000     0.112      
H        H      0.865150000000     0.204033333333     0.082080000000     0.001      
C        C      0.859320000000     0.154833333333     0.077760000000    -0.204      
C        C      0.872450000000     0.125233333333     0.076920000000     0.116      
H        H      0.863100000000     0.106000000000     0.073260000000     0.013      
C        C      0.916100000000     0.211800000000     0.091000000000     0.329      
C        C      0.830700000000     0.154600000000     0.072920000000     0.478      
N        N      0.897855000000     0.122933333333     0.081120000000    -0.146      
O        O      0.939285000000     0.208233333333     0.101460000000    -0.385      
O        O      0.906600000000     0.239733333333     0.084560000000    -0.383      
O        O      0.819025000000     0.180100000000     0.080820000000    -0.481      
O        O      0.820210000000     0.128166666667     0.061820000000    -0.465      
O        O      0.977725000000     0.286733333333     0.158140000000    -0.404      
O        O      0.992260000000     0.246500000000     0.115620000000    -0.407      
Tb       Tb     0.698205000000     0.102283333333     0.097686000000     1.587      
C        C      0.660800000000     0.317633333333     0.086180000000     0.091      
H        H      0.678450000000     0.316333333333     0.089660000000     0.018      
C        C      0.649750000000     0.015066666667     0.086620000000    -0.139      
C        C      0.623300000000     0.017100000000     0.082140000000     0.112      
H        H      0.615150000000     0.037366666667     0.082080000000     0.001      
C        C      0.609320000000     0.321500000000     0.077760000000    -0.204      
C        C      0.622450000000     0.291900000000     0.076920000000     0.116      
H        H      0.613100000000     0.272666666667     0.073260000000     0.013      
C        C      0.666100000000     0.045133333333     0.091000000000     0.33       
C        C      0.580700000000     0.321266666667     0.072920000000     0.476      
N        N      0.647855000000     0.289600000000     0.081120000000    -0.147      
O        O      0.689285000000     0.041566666667     0.101460000000    -0.388      
O        O      0.656600000000     0.073066666667     0.084560000000    -0.382      
O        O      0.569025000000     0.013433333333     0.080820000000    -0.481      
O        O      0.570210000000     0.294833333333     0.061820000000    -0.465      
O        O      0.727725000000     0.120066666667     0.158140000000    -0.44       
O        O      0.742260000000     0.079833333333     0.115620000000    -0.449      
S        S      0.500000000000     0.067106666667     0.050000000000     0.612      
S        S      0.750000000000     0.233773333333     0.050000000000     0.701      
S        S      0.500000000000     0.266226666667     0.150000000000     0.615      
S        S      0.750000000000     0.099560000000     0.150000000000     0.701      
Tb       Tb     0.948205000000     0.064383333333     0.397686000000     1.589      
C        C      0.910800000000     0.182366666667     0.386180000000     0.09       
H        H      0.928450000000     0.183666666667     0.389660000000     0.021      
C        C      0.899750000000     0.151600000000     0.386620000000    -0.137      
C        C      0.873300000000     0.149566666667     0.382140000000     0.111      
H        H      0.865150000000     0.129300000000     0.382080000000     0.001      
C        C      0.859320000000     0.178500000000     0.377760000000    -0.204      
C        C      0.872450000000     0.208100000000     0.376920000000     0.116      
H        H      0.863100000000     0.227333333333     0.373260000000     0.013      
C        C      0.916100000000     0.121533333333     0.391000000000     0.326      
C        C      0.830700000000     0.178733333333     0.372920000000     0.478      
N        N      0.897855000000     0.210400000000     0.381120000000    -0.146      
O        O      0.939285000000     0.125100000000     0.201460000000    -0.382      
O        O      0.906600000000     0.093600000000     0.384560000000    -0.382      
O        O      0.819025000000     0.153233333333     0.380820000000    -0.481      
O        O      0.820210000000     0.205166666667     0.361820000000    -0.465      
O        O      0.977725000000     0.046600000000     0.258140000000    -0.402      
O        O      0.992260000000     0.086833333333     0.215620000000    -0.404      
Tb       Tb     0.698205000000     0.231050000000     0.397686000000     1.587      
C        C      0.660800000000     0.015700000000     0.386180000000     0.089      
H        H      0.678450000000     0.017000000000     0.389660000000     0.018      
C        C      0.649750000000     0.318266666667     0.386620000000    -0.138      
C        C      0.623300000000     0.316233333333     0.382140000000     0.113      
H        H      0.615150000000     0.295966666667     0.382080000000     0.001      
C        C      0.609320000000     0.011833333333     0.377760000000    -0.205      
C        C      0.622450000000     0.041433333333     0.376920000000     0.116      
H        H      0.613100000000     0.060666666667     0.373260000000     0.013      
C        C      0.666100000000     0.288200000000     0.391000000000     0.33       
C        C      0.580700000000     0.012066666667     0.372920000000     0.475      
N        N      0.647855000000     0.043733333333     0.381120000000    -0.146      
O        O      0.689285000000     0.291766666667     0.201460000000    -0.388      
O        O      0.656600000000     0.260266666667     0.384560000000    -0.382      
O        O      0.569025000000     0.319900000000     0.380820000000    -0.479      
O        O      0.570210000000     0.038500000000     0.361820000000    -0.465      
O        O      0.727725000000     0.213266666667     0.258140000000    -0.44       
O        O      0.742260000000     0.253500000000     0.215620000000    -0.449      
Tb       Tb     0.551795000000     0.064383333333     0.302314000000     1.573      
C        C      0.589200000000     0.182366666667     0.313820000000     0.093      
H        H      0.571550000000     0.183666666667     0.310340000000     0.016      
C        C      0.600250000000     0.151600000000     0.313380000000    -0.141      
C        C      0.626700000000     0.149566666667     0.317860000000     0.113      
H        H      0.634850000000     0.129300000000     0.317920000000     0          
C        C      0.640680000000     0.178500000000     0.322240000000    -0.205      
C        C      0.627550000000     0.208100000000     0.323080000000     0.117      
H        H      0.636900000000     0.227333333333     0.326740000000     0.013      
C        C      0.583900000000     0.121533333333     0.309000000000     0.33       
C        C      0.669300000000     0.178733333333     0.327080000000     0.478      
N        N      0.602145000000     0.210400000000     0.318880000000    -0.147      
O        O      0.560715000000     0.125100000000     0.298540000000    -0.391      
O        O      0.593400000000     0.093600000000     0.315440000000    -0.382      
O        O      0.680975000000     0.153233333333     0.319180000000    -0.481      
O        O      0.679790000000     0.205166666667     0.338180000000    -0.465      
O        O      0.522275000000     0.046600000000     0.241860000000    -0.431      
O        O      0.507740000000     0.086833333333     0.284380000000    -0.445      
Tb       Tb     0.801795000000     0.231050000000     0.302314000000     1.587      
C        C      0.839200000000     0.015700000000     0.313820000000     0.091      
H        H      0.821550000000     0.017000000000     0.310340000000     0.018      
C        C      0.850250000000     0.318266666667     0.313380000000    -0.139      
C        C      0.876700000000     0.316233333333     0.317860000000     0.112      
H        H      0.884850000000     0.295966666667     0.317920000000     0          
C        C      0.890680000000     0.011833333333     0.322240000000    -0.205      
C        C      0.877550000000     0.041433333333     0.323080000000     0.116      
H        H      0.886900000000     0.060666666667     0.326740000000     0.013      
C        C      0.833900000000     0.288200000000     0.309000000000     0.33       
C        C      0.919300000000     0.012066666667     0.327080000000     0.477      
N        N      0.852145000000     0.043733333333     0.318880000000    -0.147      
O        O      0.810715000000     0.291766666667     0.298540000000    -0.388      
O        O      0.843400000000     0.260266666667     0.315440000000    -0.383      
O        O      0.930975000000     0.319900000000     0.319180000000    -0.481      
O        O      0.929790000000     0.038500000000     0.338180000000    -0.463      
O        O      0.772275000000     0.213266666667     0.241860000000    -0.44       
O        O      0.757740000000     0.253500000000     0.284380000000    -0.449      
Tb       Tb     0.551795000000     0.268950000000     0.202314000000     1.567      
C        C      0.589200000000     0.150966666667     0.213820000000     0.092      
H        H      0.571550000000     0.149666666667     0.210340000000     0.015      
C        C      0.600250000000     0.181733333333     0.213380000000    -0.14       
C        C      0.626700000000     0.183766666667     0.217860000000     0.112      
H        H      0.634850000000     0.204033333333     0.217920000000     0          
C        C      0.640680000000     0.154833333333     0.222240000000    -0.205      
C        C      0.627550000000     0.125233333333     0.223080000000     0.117      
H        H      0.636900000000     0.106000000000     0.226740000000     0.013      
C        C      0.583900000000     0.211800000000     0.209000000000     0.328      
C        C      0.669300000000     0.154600000000     0.227080000000     0.478      
N        N      0.602145000000     0.122933333333     0.218880000000    -0.147      
O        O      0.560715000000     0.208233333333     0.398540000000    -0.388      
O        O      0.593400000000     0.239733333333     0.215440000000    -0.382      
O        O      0.680975000000     0.180100000000     0.219180000000    -0.481      
O        O      0.679790000000     0.128166666667     0.238180000000    -0.465      
O        O      0.522275000000     0.286733333333     0.341860000000    -0.43       
O        O      0.507740000000     0.246500000000     0.384380000000    -0.443      
Tb       Tb     0.801795000000     0.102283333333     0.202314000000     1.587      
C        C      0.839200000000     0.317633333333     0.213820000000     0.089      
H        H      0.821550000000     0.316333333333     0.210340000000     0.018      
C        C      0.850250000000     0.015066666667     0.213380000000    -0.138      
C        C      0.876700000000     0.017100000000     0.217860000000     0.113      
H        H      0.884850000000     0.037366666667     0.217920000000     0.001      
C        C      0.890680000000     0.321500000000     0.222240000000    -0.206      
C        C      0.877550000000     0.291900000000     0.223080000000     0.116      
H        H      0.886900000000     0.272666666667     0.226740000000     0.013      
C        C      0.833900000000     0.045133333333     0.209000000000     0.33       
C        C      0.919300000000     0.321266666667     0.227080000000     0.476      
N        N      0.852145000000     0.289600000000     0.218880000000    -0.147      
O        O      0.810715000000     0.041566666667     0.398540000000    -0.388      
O        O      0.843400000000     0.073066666667     0.215440000000    -0.382      
O        O      0.930975000000     0.013433333333     0.219180000000    -0.478      
O        O      0.929790000000     0.294833333333     0.238180000000    -0.463      
O        O      0.772275000000     0.120066666667     0.341860000000    -0.44       
O        O      0.757740000000     0.079833333333     0.384380000000    -0.449      
Tb       Tb     0.948205000000     0.268950000000     0.297686000000     1.595      
C        C      0.910800000000     0.150966666667     0.286180000000     0.091      
H        H      0.928450000000     0.149666666667     0.289660000000     0.021      
C        C      0.899750000000     0.181733333333     0.286620000000    -0.138      
C        C      0.873300000000     0.183766666667     0.282140000000     0.112      
H        H      0.865150000000     0.204033333333     0.282080000000     0.001      
C        C      0.859320000000     0.154833333333     0.277760000000    -0.204      
C        C      0.872450000000     0.125233333333     0.276920000000     0.116      
H        H      0.863100000000     0.106000000000     0.273260000000     0.013      
C        C      0.916100000000     0.211800000000     0.291000000000     0.329      
C        C      0.830700000000     0.154600000000     0.272920000000     0.478      
N        N      0.897855000000     0.122933333333     0.281120000000    -0.146      
O        O      0.939285000000     0.208233333333     0.301460000000    -0.385      
O        O      0.906600000000     0.239733333333     0.284560000000    -0.383      
O        O      0.819025000000     0.180100000000     0.280820000000    -0.481      
O        O      0.820210000000     0.128166666667     0.261820000000    -0.465      
O        O      0.977725000000     0.286733333333     0.358140000000    -0.404      
O        O      0.992260000000     0.246500000000     0.315620000000    -0.407      
Tb       Tb     0.698205000000     0.102283333333     0.297686000000     1.587      
C        C      0.660800000000     0.317633333333     0.286180000000     0.091      
H        H      0.678450000000     0.316333333333     0.289660000000     0.018      
C        C      0.649750000000     0.015066666667     0.286620000000    -0.139      
C        C      0.623300000000     0.017100000000     0.282140000000     0.112      
H        H      0.615150000000     0.037366666667     0.282080000000     0.001      
C        C      0.609320000000     0.321500000000     0.277760000000    -0.204      
C        C      0.622450000000     0.291900000000     0.276920000000     0.116      
H        H      0.613100000000     0.272666666667     0.273260000000     0.013      
C        C      0.666100000000     0.045133333333     0.291000000000     0.33       
C        C      0.580700000000     0.321266666667     0.272920000000     0.476      
N        N      0.647855000000     0.289600000000     0.281120000000    -0.147      
O        O      0.689285000000     0.041566666667     0.301460000000    -0.388      
O        O      0.656600000000     0.073066666667     0.284560000000    -0.382      
O        O      0.569025000000     0.013433333333     0.280820000000    -0.481      
O        O      0.570210000000     0.294833333333     0.261820000000    -0.465      
O        O      0.727725000000     0.120066666667     0.358140000000    -0.44       
O        O      0.742260000000     0.079833333333     0.315620000000    -0.449      
S        S      0.500000000000     0.067106666667     0.250000000000     0.612      
S        S      0.750000000000     0.233773333333     0.250000000000     0.701      
S        S      0.500000000000     0.266226666667     0.350000000000     0.615      
S        S      0.750000000000     0.099560000000     0.350000000000     0.701      
Tb       Tb     0.948205000000     0.064383333333     0.597686000000     1.589      
C        C      0.910800000000     0.182366666667     0.586180000000     0.09       
H        H      0.928450000000     0.183666666667     0.589660000000     0.021      
C        C      0.899750000000     0.151600000000     0.586620000000    -0.137      
C        C      0.873300000000     0.149566666667     0.582140000000     0.111      
H        H      0.865150000000     0.129300000000     0.582080000000     0.001      
C        C      0.859320000000     0.178500000000     0.577760000000    -0.204      
C        C      0.872450000000     0.208100000000     0.576920000000     0.116      
H        H      0.863100000000     0.227333333333     0.573260000000     0.013      
C        C      0.916100000000     0.121533333333     0.591000000000     0.326      
C        C      0.830700000000     0.178733333333     0.572920000000     0.478      
N        N      0.897855000000     0.210400000000     0.581120000000    -0.146      
O        O      0.939285000000     0.125100000000     0.401460000000    -0.382      
O        O      0.906600000000     0.093600000000     0.584560000000    -0.382      
O        O      0.819025000000     0.153233333333     0.580820000000    -0.481      
O        O      0.820210000000     0.205166666667     0.561820000000    -0.465      
O        O      0.977725000000     0.046600000000     0.458140000000    -0.402      
O        O      0.992260000000     0.086833333333     0.415620000000    -0.404      
Tb       Tb     0.698205000000     0.231050000000     0.597686000000     1.587      
C        C      0.660800000000     0.015700000000     0.586180000000     0.089      
H        H      0.678450000000     0.017000000000     0.589660000000     0.018      
C        C      0.649750000000     0.318266666667     0.586620000000    -0.138      
C        C      0.623300000000     0.316233333333     0.582140000000     0.113      
H        H      0.615150000000     0.295966666667     0.582080000000     0.001      
C        C      0.609320000000     0.011833333333     0.577760000000    -0.205      
C        C      0.622450000000     0.041433333333     0.576920000000     0.116      
H        H      0.613100000000     0.060666666667     0.573260000000     0.013      
C        C      0.666100000000     0.288200000000     0.591000000000     0.33       
C        C      0.580700000000     0.012066666667     0.572920000000     0.475      
N        N      0.647855000000     0.043733333333     0.581120000000    -0.146      
O        O      0.689285000000     0.291766666667     0.401460000000    -0.388      
O        O      0.656600000000     0.260266666667     0.584560000000    -0.382      
O        O      0.569025000000     0.319900000000     0.580820000000    -0.479      
O        O      0.570210000000     0.038500000000     0.561820000000    -0.465      
O        O      0.727725000000     0.213266666667     0.458140000000    -0.44       
O        O      0.742260000000     0.253500000000     0.415620000000    -0.449      
Tb       Tb     0.551795000000     0.064383333333     0.502314000000     1.573      
C        C      0.589200000000     0.182366666667     0.513820000000     0.093      
H        H      0.571550000000     0.183666666667     0.510340000000     0.016      
C        C      0.600250000000     0.151600000000     0.513380000000    -0.141      
C        C      0.626700000000     0.149566666667     0.517860000000     0.113      
H        H      0.634850000000     0.129300000000     0.517920000000     0          
C        C      0.640680000000     0.178500000000     0.522240000000    -0.205      
C        C      0.627550000000     0.208100000000     0.523080000000     0.117      
H        H      0.636900000000     0.227333333333     0.526740000000     0.013      
C        C      0.583900000000     0.121533333333     0.509000000000     0.33       
C        C      0.669300000000     0.178733333333     0.527080000000     0.478      
N        N      0.602145000000     0.210400000000     0.518880000000    -0.147      
O        O      0.560715000000     0.125100000000     0.498540000000    -0.391      
O        O      0.593400000000     0.093600000000     0.515440000000    -0.382      
O        O      0.680975000000     0.153233333333     0.519180000000    -0.481      
O        O      0.679790000000     0.205166666667     0.538180000000    -0.465      
O        O      0.522275000000     0.046600000000     0.441860000000    -0.431      
O        O      0.507740000000     0.086833333333     0.484380000000    -0.445      
Tb       Tb     0.801795000000     0.231050000000     0.502314000000     1.587      
C        C      0.839200000000     0.015700000000     0.513820000000     0.091      
H        H      0.821550000000     0.017000000000     0.510340000000     0.018      
C        C      0.850250000000     0.318266666667     0.513380000000    -0.139      
C        C      0.876700000000     0.316233333333     0.517860000000     0.112      
H        H      0.884850000000     0.295966666667     0.517920000000     0          
C        C      0.890680000000     0.011833333333     0.522240000000    -0.205      
C        C      0.877550000000     0.041433333333     0.523080000000     0.116      
H        H      0.886900000000     0.060666666667     0.526740000000     0.013      
C        C      0.833900000000     0.288200000000     0.509000000000     0.33       
C        C      0.919300000000     0.012066666667     0.527080000000     0.477      
N        N      0.852145000000     0.043733333333     0.518880000000    -0.147      
O        O      0.810715000000     0.291766666667     0.498540000000    -0.388      
O        O      0.843400000000     0.260266666667     0.515440000000    -0.383      
O        O      0.930975000000     0.319900000000     0.519180000000    -0.481      
O        O      0.929790000000     0.038500000000     0.538180000000    -0.463      
O        O      0.772275000000     0.213266666667     0.441860000000    -0.44       
O        O      0.757740000000     0.253500000000     0.484380000000    -0.449      
Tb       Tb     0.551795000000     0.268950000000     0.402314000000     1.567      
C        C      0.589200000000     0.150966666667     0.413820000000     0.092      
H        H      0.571550000000     0.149666666667     0.410340000000     0.015      
C        C      0.600250000000     0.181733333333     0.413380000000    -0.14       
C        C      0.626700000000     0.183766666667     0.417860000000     0.112      
H        H      0.634850000000     0.204033333333     0.417920000000     0          
C        C      0.640680000000     0.154833333333     0.422240000000    -0.205      
C        C      0.627550000000     0.125233333333     0.423080000000     0.117      
H        H      0.636900000000     0.106000000000     0.426740000000     0.013      
C        C      0.583900000000     0.211800000000     0.409000000000     0.328      
C        C      0.669300000000     0.154600000000     0.427080000000     0.478      
N        N      0.602145000000     0.122933333333     0.418880000000    -0.147      
O        O      0.560715000000     0.208233333333     0.598540000000    -0.388      
O        O      0.593400000000     0.239733333333     0.415440000000    -0.382      
O        O      0.680975000000     0.180100000000     0.419180000000    -0.481      
O        O      0.679790000000     0.128166666667     0.438180000000    -0.465      
O        O      0.522275000000     0.286733333333     0.541860000000    -0.43       
O        O      0.507740000000     0.246500000000     0.584380000000    -0.443      
Tb       Tb     0.801795000000     0.102283333333     0.402314000000     1.587      
C        C      0.839200000000     0.317633333333     0.413820000000     0.089      
H        H      0.821550000000     0.316333333333     0.410340000000     0.018      
C        C      0.850250000000     0.015066666667     0.413380000000    -0.138      
C        C      0.876700000000     0.017100000000     0.417860000000     0.113      
H        H      0.884850000000     0.037366666667     0.417920000000     0.001      
C        C      0.890680000000     0.321500000000     0.422240000000    -0.206      
C        C      0.877550000000     0.291900000000     0.423080000000     0.116      
H        H      0.886900000000     0.272666666667     0.426740000000     0.013      
C        C      0.833900000000     0.045133333333     0.409000000000     0.33       
C        C      0.919300000000     0.321266666667     0.427080000000     0.476      
N        N      0.852145000000     0.289600000000     0.418880000000    -0.147      
O        O      0.810715000000     0.041566666667     0.598540000000    -0.388      
O        O      0.843400000000     0.073066666667     0.415440000000    -0.382      
O        O      0.930975000000     0.013433333333     0.419180000000    -0.478      
O        O      0.929790000000     0.294833333333     0.438180000000    -0.463      
O        O      0.772275000000     0.120066666667     0.541860000000    -0.44       
O        O      0.757740000000     0.079833333333     0.584380000000    -0.449      
Tb       Tb     0.948205000000     0.268950000000     0.497686000000     1.595      
C        C      0.910800000000     0.150966666667     0.486180000000     0.091      
H        H      0.928450000000     0.149666666667     0.489660000000     0.021      
C        C      0.899750000000     0.181733333333     0.486620000000    -0.138      
C        C      0.873300000000     0.183766666667     0.482140000000     0.112      
H        H      0.865150000000     0.204033333333     0.482080000000     0.001      
C        C      0.859320000000     0.154833333333     0.477760000000    -0.204      
C        C      0.872450000000     0.125233333333     0.476920000000     0.116      
H        H      0.863100000000     0.106000000000     0.473260000000     0.013      
C        C      0.916100000000     0.211800000000     0.491000000000     0.329      
C        C      0.830700000000     0.154600000000     0.472920000000     0.478      
N        N      0.897855000000     0.122933333333     0.481120000000    -0.146      
O        O      0.939285000000     0.208233333333     0.501460000000    -0.385      
O        O      0.906600000000     0.239733333333     0.484560000000    -0.383      
O        O      0.819025000000     0.180100000000     0.480820000000    -0.481      
O        O      0.820210000000     0.128166666667     0.461820000000    -0.465      
O        O      0.977725000000     0.286733333333     0.558140000000    -0.404      
O        O      0.992260000000     0.246500000000     0.515620000000    -0.407      
Tb       Tb     0.698205000000     0.102283333333     0.497686000000     1.587      
C        C      0.660800000000     0.317633333333     0.486180000000     0.091      
H        H      0.678450000000     0.316333333333     0.489660000000     0.018      
C        C      0.649750000000     0.015066666667     0.486620000000    -0.139      
C        C      0.623300000000     0.017100000000     0.482140000000     0.112      
H        H      0.615150000000     0.037366666667     0.482080000000     0.001      
C        C      0.609320000000     0.321500000000     0.477760000000    -0.204      
C        C      0.622450000000     0.291900000000     0.476920000000     0.116      
H        H      0.613100000000     0.272666666667     0.473260000000     0.013      
C        C      0.666100000000     0.045133333333     0.491000000000     0.33       
C        C      0.580700000000     0.321266666667     0.472920000000     0.476      
N        N      0.647855000000     0.289600000000     0.481120000000    -0.147      
O        O      0.689285000000     0.041566666667     0.501460000000    -0.388      
O        O      0.656600000000     0.073066666667     0.484560000000    -0.382      
O        O      0.569025000000     0.013433333333     0.480820000000    -0.481      
O        O      0.570210000000     0.294833333333     0.461820000000    -0.465      
O        O      0.727725000000     0.120066666667     0.558140000000    -0.44       
O        O      0.742260000000     0.079833333333     0.515620000000    -0.449      
S        S      0.500000000000     0.067106666667     0.450000000000     0.612      
S        S      0.750000000000     0.233773333333     0.450000000000     0.701      
S        S      0.500000000000     0.266226666667     0.550000000000     0.615      
S        S      0.750000000000     0.099560000000     0.550000000000     0.701      
Tb       Tb     0.948205000000     0.064383333333     0.797686000000     1.589      
C        C      0.910800000000     0.182366666667     0.786180000000     0.09       
H        H      0.928450000000     0.183666666667     0.789660000000     0.021      
C        C      0.899750000000     0.151600000000     0.786620000000    -0.137      
C        C      0.873300000000     0.149566666667     0.782140000000     0.111      
H        H      0.865150000000     0.129300000000     0.782080000000     0.001      
C        C      0.859320000000     0.178500000000     0.777760000000    -0.204      
C        C      0.872450000000     0.208100000000     0.776920000000     0.116      
H        H      0.863100000000     0.227333333333     0.773260000000     0.013      
C        C      0.916100000000     0.121533333333     0.791000000000     0.326      
C        C      0.830700000000     0.178733333333     0.772920000000     0.478      
N        N      0.897855000000     0.210400000000     0.781120000000    -0.146      
O        O      0.939285000000     0.125100000000     0.601460000000    -0.382      
O        O      0.906600000000     0.093600000000     0.784560000000    -0.382      
O        O      0.819025000000     0.153233333333     0.780820000000    -0.481      
O        O      0.820210000000     0.205166666667     0.761820000000    -0.465      
O        O      0.977725000000     0.046600000000     0.658140000000    -0.402      
O        O      0.992260000000     0.086833333333     0.615620000000    -0.404      
Tb       Tb     0.698205000000     0.231050000000     0.797686000000     1.587      
C        C      0.660800000000     0.015700000000     0.786180000000     0.089      
H        H      0.678450000000     0.017000000000     0.789660000000     0.018      
C        C      0.649750000000     0.318266666667     0.786620000000    -0.138      
C        C      0.623300000000     0.316233333333     0.782140000000     0.113      
H        H      0.615150000000     0.295966666667     0.782080000000     0.001      
C        C      0.609320000000     0.011833333333     0.777760000000    -0.205      
C        C      0.622450000000     0.041433333333     0.776920000000     0.116      
H        H      0.613100000000     0.060666666667     0.773260000000     0.013      
C        C      0.666100000000     0.288200000000     0.791000000000     0.33       
C        C      0.580700000000     0.012066666667     0.772920000000     0.475      
N        N      0.647855000000     0.043733333333     0.781120000000    -0.146      
O        O      0.689285000000     0.291766666667     0.601460000000    -0.388      
O        O      0.656600000000     0.260266666667     0.784560000000    -0.382      
O        O      0.569025000000     0.319900000000     0.780820000000    -0.479      
O        O      0.570210000000     0.038500000000     0.761820000000    -0.465      
O        O      0.727725000000     0.213266666667     0.658140000000    -0.44       
O        O      0.742260000000     0.253500000000     0.615620000000    -0.449      
Tb       Tb     0.551795000000     0.064383333333     0.702314000000     1.573      
C        C      0.589200000000     0.182366666667     0.713820000000     0.093      
H        H      0.571550000000     0.183666666667     0.710340000000     0.016      
C        C      0.600250000000     0.151600000000     0.713380000000    -0.141      
C        C      0.626700000000     0.149566666667     0.717860000000     0.113      
H        H      0.634850000000     0.129300000000     0.717920000000     0          
C        C      0.640680000000     0.178500000000     0.722240000000    -0.205      
C        C      0.627550000000     0.208100000000     0.723080000000     0.117      
H        H      0.636900000000     0.227333333333     0.726740000000     0.013      
C        C      0.583900000000     0.121533333333     0.709000000000     0.33       
C        C      0.669300000000     0.178733333333     0.727080000000     0.478      
N        N      0.602145000000     0.210400000000     0.718880000000    -0.147      
O        O      0.560715000000     0.125100000000     0.698540000000    -0.391      
O        O      0.593400000000     0.093600000000     0.715440000000    -0.382      
O        O      0.680975000000     0.153233333333     0.719180000000    -0.481      
O        O      0.679790000000     0.205166666667     0.738180000000    -0.465      
O        O      0.522275000000     0.046600000000     0.641860000000    -0.431      
O        O      0.507740000000     0.086833333333     0.684380000000    -0.445      
Tb       Tb     0.801795000000     0.231050000000     0.702314000000     1.587      
C        C      0.839200000000     0.015700000000     0.713820000000     0.091      
H        H      0.821550000000     0.017000000000     0.710340000000     0.018      
C        C      0.850250000000     0.318266666667     0.713380000000    -0.139      
C        C      0.876700000000     0.316233333333     0.717860000000     0.112      
H        H      0.884850000000     0.295966666667     0.717920000000     0          
C        C      0.890680000000     0.011833333333     0.722240000000    -0.205      
C        C      0.877550000000     0.041433333333     0.723080000000     0.116      
H        H      0.886900000000     0.060666666667     0.726740000000     0.013      
C        C      0.833900000000     0.288200000000     0.709000000000     0.33       
C        C      0.919300000000     0.012066666667     0.727080000000     0.477      
N        N      0.852145000000     0.043733333333     0.718880000000    -0.147      
O        O      0.810715000000     0.291766666667     0.698540000000    -0.388      
O        O      0.843400000000     0.260266666667     0.715440000000    -0.383      
O        O      0.930975000000     0.319900000000     0.719180000000    -0.481      
O        O      0.929790000000     0.038500000000     0.738180000000    -0.463      
O        O      0.772275000000     0.213266666667     0.641860000000    -0.44       
O        O      0.757740000000     0.253500000000     0.684380000000    -0.449      
Tb       Tb     0.551795000000     0.268950000000     0.602314000000     1.567      
C        C      0.589200000000     0.150966666667     0.613820000000     0.092      
H        H      0.571550000000     0.149666666667     0.610340000000     0.015      
C        C      0.600250000000     0.181733333333     0.613380000000    -0.14       
C        C      0.626700000000     0.183766666667     0.617860000000     0.112      
H        H      0.634850000000     0.204033333333     0.617920000000     0          
C        C      0.640680000000     0.154833333333     0.622240000000    -0.205      
C        C      0.627550000000     0.125233333333     0.623080000000     0.117      
H        H      0.636900000000     0.106000000000     0.626740000000     0.013      
C        C      0.583900000000     0.211800000000     0.609000000000     0.328      
C        C      0.669300000000     0.154600000000     0.627080000000     0.478      
N        N      0.602145000000     0.122933333333     0.618880000000    -0.147      
O        O      0.560715000000     0.208233333333     0.798540000000    -0.388      
O        O      0.593400000000     0.239733333333     0.615440000000    -0.382      
O        O      0.680975000000     0.180100000000     0.619180000000    -0.481      
O        O      0.679790000000     0.128166666667     0.638180000000    -0.465      
O        O      0.522275000000     0.286733333333     0.741860000000    -0.43       
O        O      0.507740000000     0.246500000000     0.784380000000    -0.443      
Tb       Tb     0.801795000000     0.102283333333     0.602314000000     1.587      
C        C      0.839200000000     0.317633333333     0.613820000000     0.089      
H        H      0.821550000000     0.316333333333     0.610340000000     0.018      
C        C      0.850250000000     0.015066666667     0.613380000000    -0.138      
C        C      0.876700000000     0.017100000000     0.617860000000     0.113      
H        H      0.884850000000     0.037366666667     0.617920000000     0.001      
C        C      0.890680000000     0.321500000000     0.622240000000    -0.206      
C        C      0.877550000000     0.291900000000     0.623080000000     0.116      
H        H      0.886900000000     0.272666666667     0.626740000000     0.013      
C        C      0.833900000000     0.045133333333     0.609000000000     0.33       
C        C      0.919300000000     0.321266666667     0.627080000000     0.476      
N        N      0.852145000000     0.289600000000     0.618880000000    -0.147      
O        O      0.810715000000     0.041566666667     0.798540000000    -0.388      
O        O      0.843400000000     0.073066666667     0.615440000000    -0.382      
O        O      0.930975000000     0.013433333333     0.619180000000    -0.478      
O        O      0.929790000000     0.294833333333     0.638180000000    -0.463      
O        O      0.772275000000     0.120066666667     0.741860000000    -0.44       
O        O      0.757740000000     0.079833333333     0.784380000000    -0.449      
Tb       Tb     0.948205000000     0.268950000000     0.697686000000     1.595      
C        C      0.910800000000     0.150966666667     0.686180000000     0.091      
H        H      0.928450000000     0.149666666667     0.689660000000     0.021      
C        C      0.899750000000     0.181733333333     0.686620000000    -0.138      
C        C      0.873300000000     0.183766666667     0.682140000000     0.112      
H        H      0.865150000000     0.204033333333     0.682080000000     0.001      
C        C      0.859320000000     0.154833333333     0.677760000000    -0.204      
C        C      0.872450000000     0.125233333333     0.676920000000     0.116      
H        H      0.863100000000     0.106000000000     0.673260000000     0.013      
C        C      0.916100000000     0.211800000000     0.691000000000     0.329      
C        C      0.830700000000     0.154600000000     0.672920000000     0.478      
N        N      0.897855000000     0.122933333333     0.681120000000    -0.146      
O        O      0.939285000000     0.208233333333     0.701460000000    -0.385      
O        O      0.906600000000     0.239733333333     0.684560000000    -0.383      
O        O      0.819025000000     0.180100000000     0.680820000000    -0.481      
O        O      0.820210000000     0.128166666667     0.661820000000    -0.465      
O        O      0.977725000000     0.286733333333     0.758140000000    -0.404      
O        O      0.992260000000     0.246500000000     0.715620000000    -0.407      
Tb       Tb     0.698205000000     0.102283333333     0.697686000000     1.587      
C        C      0.660800000000     0.317633333333     0.686180000000     0.091      
H        H      0.678450000000     0.316333333333     0.689660000000     0.018      
C        C      0.649750000000     0.015066666667     0.686620000000    -0.139      
C        C      0.623300000000     0.017100000000     0.682140000000     0.112      
H        H      0.615150000000     0.037366666667     0.682080000000     0.001      
C        C      0.609320000000     0.321500000000     0.677760000000    -0.204      
C        C      0.622450000000     0.291900000000     0.676920000000     0.116      
H        H      0.613100000000     0.272666666667     0.673260000000     0.013      
C        C      0.666100000000     0.045133333333     0.691000000000     0.33       
C        C      0.580700000000     0.321266666667     0.672920000000     0.476      
N        N      0.647855000000     0.289600000000     0.681120000000    -0.147      
O        O      0.689285000000     0.041566666667     0.701460000000    -0.388      
O        O      0.656600000000     0.073066666667     0.684560000000    -0.382      
O        O      0.569025000000     0.013433333333     0.680820000000    -0.481      
O        O      0.570210000000     0.294833333333     0.661820000000    -0.465      
O        O      0.727725000000     0.120066666667     0.758140000000    -0.44       
O        O      0.742260000000     0.079833333333     0.715620000000    -0.449      
S        S      0.500000000000     0.067106666667     0.650000000000     0.612      
S        S      0.750000000000     0.233773333333     0.650000000000     0.701      
S        S      0.500000000000     0.266226666667     0.750000000000     0.615      
S        S      0.750000000000     0.099560000000     0.750000000000     0.701      
Tb       Tb     0.948205000000     0.064383333333     0.997686000000     1.589      
C        C      0.910800000000     0.182366666667     0.986180000000     0.09       
H        H      0.928450000000     0.183666666667     0.989660000000     0.021      
C        C      0.899750000000     0.151600000000     0.986620000000    -0.137      
C        C      0.873300000000     0.149566666667     0.982140000000     0.111      
H        H      0.865150000000     0.129300000000     0.982080000000     0.001      
C        C      0.859320000000     0.178500000000     0.977760000000    -0.204      
C        C      0.872450000000     0.208100000000     0.976920000000     0.116      
H        H      0.863100000000     0.227333333333     0.973260000000     0.013      
C        C      0.916100000000     0.121533333333     0.991000000000     0.326      
C        C      0.830700000000     0.178733333333     0.972920000000     0.478      
N        N      0.897855000000     0.210400000000     0.981120000000    -0.146      
O        O      0.939285000000     0.125100000000     0.801460000000    -0.382      
O        O      0.906600000000     0.093600000000     0.984560000000    -0.382      
O        O      0.819025000000     0.153233333333     0.980820000000    -0.481      
O        O      0.820210000000     0.205166666667     0.961820000000    -0.465      
O        O      0.977725000000     0.046600000000     0.858140000000    -0.402      
O        O      0.992260000000     0.086833333333     0.815620000000    -0.404      
Tb       Tb     0.698205000000     0.231050000000     0.997686000000     1.587      
C        C      0.660800000000     0.015700000000     0.986180000000     0.089      
H        H      0.678450000000     0.017000000000     0.989660000000     0.018      
C        C      0.649750000000     0.318266666667     0.986620000000    -0.138      
C        C      0.623300000000     0.316233333333     0.982140000000     0.113      
H        H      0.615150000000     0.295966666667     0.982080000000     0.001      
C        C      0.609320000000     0.011833333333     0.977760000000    -0.205      
C        C      0.622450000000     0.041433333333     0.976920000000     0.116      
H        H      0.613100000000     0.060666666667     0.973260000000     0.013      
C        C      0.666100000000     0.288200000000     0.991000000000     0.33       
C        C      0.580700000000     0.012066666667     0.972920000000     0.475      
N        N      0.647855000000     0.043733333333     0.981120000000    -0.146      
O        O      0.689285000000     0.291766666667     0.801460000000    -0.388      
O        O      0.656600000000     0.260266666667     0.984560000000    -0.382      
O        O      0.569025000000     0.319900000000     0.980820000000    -0.479      
O        O      0.570210000000     0.038500000000     0.961820000000    -0.465      
O        O      0.727725000000     0.213266666667     0.858140000000    -0.44       
O        O      0.742260000000     0.253500000000     0.815620000000    -0.449      
Tb       Tb     0.551795000000     0.064383333333     0.902314000000     1.573      
C        C      0.589200000000     0.182366666667     0.913820000000     0.093      
H        H      0.571550000000     0.183666666667     0.910340000000     0.016      
C        C      0.600250000000     0.151600000000     0.913380000000    -0.141      
C        C      0.626700000000     0.149566666667     0.917860000000     0.113      
H        H      0.634850000000     0.129300000000     0.917920000000     0          
C        C      0.640680000000     0.178500000000     0.922240000000    -0.205      
C        C      0.627550000000     0.208100000000     0.923080000000     0.117      
H        H      0.636900000000     0.227333333333     0.926740000000     0.013      
C        C      0.583900000000     0.121533333333     0.909000000000     0.33       
C        C      0.669300000000     0.178733333333     0.927080000000     0.478      
N        N      0.602145000000     0.210400000000     0.918880000000    -0.147      
O        O      0.560715000000     0.125100000000     0.898540000000    -0.391      
O        O      0.593400000000     0.093600000000     0.915440000000    -0.382      
O        O      0.680975000000     0.153233333333     0.919180000000    -0.481      
O        O      0.679790000000     0.205166666667     0.938180000000    -0.465      
O        O      0.522275000000     0.046600000000     0.841860000000    -0.431      
O        O      0.507740000000     0.086833333333     0.884380000000    -0.445      
Tb       Tb     0.801795000000     0.231050000000     0.902314000000     1.587      
C        C      0.839200000000     0.015700000000     0.913820000000     0.091      
H        H      0.821550000000     0.017000000000     0.910340000000     0.018      
C        C      0.850250000000     0.318266666667     0.913380000000    -0.139      
C        C      0.876700000000     0.316233333333     0.917860000000     0.112      
H        H      0.884850000000     0.295966666667     0.917920000000     0          
C        C      0.890680000000     0.011833333333     0.922240000000    -0.205      
C        C      0.877550000000     0.041433333333     0.923080000000     0.116      
H        H      0.886900000000     0.060666666667     0.926740000000     0.013      
C        C      0.833900000000     0.288200000000     0.909000000000     0.33       
C        C      0.919300000000     0.012066666667     0.927080000000     0.477      
N        N      0.852145000000     0.043733333333     0.918880000000    -0.147      
O        O      0.810715000000     0.291766666667     0.898540000000    -0.388      
O        O      0.843400000000     0.260266666667     0.915440000000    -0.383      
O        O      0.930975000000     0.319900000000     0.919180000000    -0.481      
O        O      0.929790000000     0.038500000000     0.938180000000    -0.463      
O        O      0.772275000000     0.213266666667     0.841860000000    -0.44       
O        O      0.757740000000     0.253500000000     0.884380000000    -0.449      
Tb       Tb     0.551795000000     0.268950000000     0.802314000000     1.567      
C        C      0.589200000000     0.150966666667     0.813820000000     0.092      
H        H      0.571550000000     0.149666666667     0.810340000000     0.015      
C        C      0.600250000000     0.181733333333     0.813380000000    -0.14       
C        C      0.626700000000     0.183766666667     0.817860000000     0.112      
H        H      0.634850000000     0.204033333333     0.817920000000     0          
C        C      0.640680000000     0.154833333333     0.822240000000    -0.205      
C        C      0.627550000000     0.125233333333     0.823080000000     0.117      
H        H      0.636900000000     0.106000000000     0.826740000000     0.013      
C        C      0.583900000000     0.211800000000     0.809000000000     0.328      
C        C      0.669300000000     0.154600000000     0.827080000000     0.478      
N        N      0.602145000000     0.122933333333     0.818880000000    -0.147      
O        O      0.560715000000     0.208233333333     0.998540000000    -0.388      
O        O      0.593400000000     0.239733333333     0.815440000000    -0.382      
O        O      0.680975000000     0.180100000000     0.819180000000    -0.481      
O        O      0.679790000000     0.128166666667     0.838180000000    -0.465      
O        O      0.522275000000     0.286733333333     0.941860000000    -0.43       
O        O      0.507740000000     0.246500000000     0.984380000000    -0.443      
Tb       Tb     0.801795000000     0.102283333333     0.802314000000     1.587      
C        C      0.839200000000     0.317633333333     0.813820000000     0.089      
H        H      0.821550000000     0.316333333333     0.810340000000     0.018      
C        C      0.850250000000     0.015066666667     0.813380000000    -0.138      
C        C      0.876700000000     0.017100000000     0.817860000000     0.113      
H        H      0.884850000000     0.037366666667     0.817920000000     0.001      
C        C      0.890680000000     0.321500000000     0.822240000000    -0.206      
C        C      0.877550000000     0.291900000000     0.823080000000     0.116      
H        H      0.886900000000     0.272666666667     0.826740000000     0.013      
C        C      0.833900000000     0.045133333333     0.809000000000     0.33       
C        C      0.919300000000     0.321266666667     0.827080000000     0.476      
N        N      0.852145000000     0.289600000000     0.818880000000    -0.147      
O        O      0.810715000000     0.041566666667     0.998540000000    -0.388      
O        O      0.843400000000     0.073066666667     0.815440000000    -0.382      
O        O      0.930975000000     0.013433333333     0.819180000000    -0.478      
O        O      0.929790000000     0.294833333333     0.838180000000    -0.463      
O        O      0.772275000000     0.120066666667     0.941860000000    -0.44       
O        O      0.757740000000     0.079833333333     0.984380000000    -0.449      
Tb       Tb     0.948205000000     0.268950000000     0.897686000000     1.595      
C        C      0.910800000000     0.150966666667     0.886180000000     0.091      
H        H      0.928450000000     0.149666666667     0.889660000000     0.021      
C        C      0.899750000000     0.181733333333     0.886620000000    -0.138      
C        C      0.873300000000     0.183766666667     0.882140000000     0.112      
H        H      0.865150000000     0.204033333333     0.882080000000     0.001      
C        C      0.859320000000     0.154833333333     0.877760000000    -0.204      
C        C      0.872450000000     0.125233333333     0.876920000000     0.116      
H        H      0.863100000000     0.106000000000     0.873260000000     0.013      
C        C      0.916100000000     0.211800000000     0.891000000000     0.329      
C        C      0.830700000000     0.154600000000     0.872920000000     0.478      
N        N      0.897855000000     0.122933333333     0.881120000000    -0.146      
O        O      0.939285000000     0.208233333333     0.901460000000    -0.385      
O        O      0.906600000000     0.239733333333     0.884560000000    -0.383      
O        O      0.819025000000     0.180100000000     0.880820000000    -0.481      
O        O      0.820210000000     0.128166666667     0.861820000000    -0.465      
O        O      0.977725000000     0.286733333333     0.958140000000    -0.404      
O        O      0.992260000000     0.246500000000     0.915620000000    -0.407      
Tb       Tb     0.698205000000     0.102283333333     0.897686000000     1.587      
C        C      0.660800000000     0.317633333333     0.886180000000     0.091      
H        H      0.678450000000     0.316333333333     0.889660000000     0.018      
C        C      0.649750000000     0.015066666667     0.886620000000    -0.139      
C        C      0.623300000000     0.017100000000     0.882140000000     0.112      
H        H      0.615150000000     0.037366666667     0.882080000000     0.001      
C        C      0.609320000000     0.321500000000     0.877760000000    -0.204      
C        C      0.622450000000     0.291900000000     0.876920000000     0.116      
H        H      0.613100000000     0.272666666667     0.873260000000     0.013      
C        C      0.666100000000     0.045133333333     0.891000000000     0.33       
C        C      0.580700000000     0.321266666667     0.872920000000     0.476      
N        N      0.647855000000     0.289600000000     0.881120000000    -0.147      
O        O      0.689285000000     0.041566666667     0.901460000000    -0.388      
O        O      0.656600000000     0.073066666667     0.884560000000    -0.382      
O        O      0.569025000000     0.013433333333     0.880820000000    -0.481      
O        O      0.570210000000     0.294833333333     0.861820000000    -0.465      
O        O      0.727725000000     0.120066666667     0.958140000000    -0.44       
O        O      0.742260000000     0.079833333333     0.915620000000    -0.449      
S        S      0.500000000000     0.067106666667     0.850000000000     0.612      
S        S      0.750000000000     0.233773333333     0.850000000000     0.701      
S        S      0.500000000000     0.266226666667     0.950000000000     0.615      
S        S      0.750000000000     0.099560000000     0.950000000000     0.701      
Tb       Tb     0.948205000000     0.397716666667     0.197686000000     1.589      
C        C      0.910800000000     0.515700000000     0.186180000000     0.09       
H        H      0.928450000000     0.517000000000     0.189660000000     0.021      
C        C      0.899750000000     0.484933333333     0.186620000000    -0.137      
C        C      0.873300000000     0.482900000000     0.182140000000     0.111      
H        H      0.865150000000     0.462633333333     0.182080000000     0.001      
C        C      0.859320000000     0.511833333333     0.177760000000    -0.204      
C        C      0.872450000000     0.541433333333     0.176920000000     0.116      
H        H      0.863100000000     0.560666666667     0.173260000000     0.013      
C        C      0.916100000000     0.454866666667     0.191000000000     0.326      
C        C      0.830700000000     0.512066666667     0.172920000000     0.478      
N        N      0.897855000000     0.543733333333     0.181120000000    -0.146      
O        O      0.939285000000     0.458433333333     0.001460000000    -0.382      
O        O      0.906600000000     0.426933333333     0.184560000000    -0.382      
O        O      0.819025000000     0.486566666667     0.180820000000    -0.481      
O        O      0.820210000000     0.538500000000     0.161820000000    -0.465      
O        O      0.977725000000     0.379933333333     0.058140000000    -0.402      
O        O      0.992260000000     0.420166666667     0.015620000000    -0.404      
Tb       Tb     0.698205000000     0.564383333333     0.197686000000     1.587      
C        C      0.660800000000     0.349033333333     0.186180000000     0.089      
H        H      0.678450000000     0.350333333333     0.189660000000     0.018      
C        C      0.649750000000     0.651600000000     0.186620000000    -0.138      
C        C      0.623300000000     0.649566666667     0.182140000000     0.113      
H        H      0.615150000000     0.629300000000     0.182080000000     0.001      
C        C      0.609320000000     0.345166666667     0.177760000000    -0.205      
C        C      0.622450000000     0.374766666667     0.176920000000     0.116      
H        H      0.613100000000     0.394000000000     0.173260000000     0.013      
C        C      0.666100000000     0.621533333333     0.191000000000     0.33       
C        C      0.580700000000     0.345400000000     0.172920000000     0.475      
N        N      0.647855000000     0.377066666667     0.181120000000    -0.146      
O        O      0.689285000000     0.625100000000     0.001460000000    -0.388      
O        O      0.656600000000     0.593600000000     0.184560000000    -0.382      
O        O      0.569025000000     0.653233333333     0.180820000000    -0.479      
O        O      0.570210000000     0.371833333333     0.161820000000    -0.465      
O        O      0.727725000000     0.546600000000     0.058140000000    -0.44       
O        O      0.742260000000     0.586833333333     0.015620000000    -0.449      
Tb       Tb     0.551795000000     0.397716666667     0.102314000000     1.573      
C        C      0.589200000000     0.515700000000     0.113820000000     0.093      
H        H      0.571550000000     0.517000000000     0.110340000000     0.016      
C        C      0.600250000000     0.484933333333     0.113380000000    -0.141      
C        C      0.626700000000     0.482900000000     0.117860000000     0.113      
H        H      0.634850000000     0.462633333333     0.117920000000     0          
C        C      0.640680000000     0.511833333333     0.122240000000    -0.205      
C        C      0.627550000000     0.541433333333     0.123080000000     0.117      
H        H      0.636900000000     0.560666666667     0.126740000000     0.013      
C        C      0.583900000000     0.454866666667     0.109000000000     0.33       
C        C      0.669300000000     0.512066666667     0.127080000000     0.478      
N        N      0.602145000000     0.543733333333     0.118880000000    -0.147      
O        O      0.560715000000     0.458433333333     0.098540000000    -0.391      
O        O      0.593400000000     0.426933333333     0.115440000000    -0.382      
O        O      0.680975000000     0.486566666667     0.119180000000    -0.481      
O        O      0.679790000000     0.538500000000     0.138180000000    -0.465      
O        O      0.522275000000     0.379933333333     0.041860000000    -0.431      
O        O      0.507740000000     0.420166666667     0.084380000000    -0.445      
Tb       Tb     0.801795000000     0.564383333333     0.102314000000     1.587      
C        C      0.839200000000     0.349033333333     0.113820000000     0.091      
H        H      0.821550000000     0.350333333333     0.110340000000     0.018      
C        C      0.850250000000     0.651600000000     0.113380000000    -0.139      
C        C      0.876700000000     0.649566666667     0.117860000000     0.112      
H        H      0.884850000000     0.629300000000     0.117920000000     0          
C        C      0.890680000000     0.345166666667     0.122240000000    -0.205      
C        C      0.877550000000     0.374766666667     0.123080000000     0.116      
H        H      0.886900000000     0.394000000000     0.126740000000     0.013      
C        C      0.833900000000     0.621533333333     0.109000000000     0.33       
C        C      0.919300000000     0.345400000000     0.127080000000     0.477      
N        N      0.852145000000     0.377066666667     0.118880000000    -0.147      
O        O      0.810715000000     0.625100000000     0.098540000000    -0.388      
O        O      0.843400000000     0.593600000000     0.115440000000    -0.383      
O        O      0.930975000000     0.653233333333     0.119180000000    -0.481      
O        O      0.929790000000     0.371833333333     0.138180000000    -0.463      
O        O      0.772275000000     0.546600000000     0.041860000000    -0.44       
O        O      0.757740000000     0.586833333333     0.084380000000    -0.449      
Tb       Tb     0.551795000000     0.602283333333     0.002314000000     1.567      
C        C      0.589200000000     0.484300000000     0.013820000000     0.092      
H        H      0.571550000000     0.483000000000     0.010340000000     0.015      
C        C      0.600250000000     0.515066666667     0.013380000000    -0.14       
C        C      0.626700000000     0.517100000000     0.017860000000     0.112      
H        H      0.634850000000     0.537366666667     0.017920000000     0          
C        C      0.640680000000     0.488166666667     0.022240000000    -0.205      
C        C      0.627550000000     0.458566666667     0.023080000000     0.117      
H        H      0.636900000000     0.439333333333     0.026740000000     0.013      
C        C      0.583900000000     0.545133333333     0.009000000000     0.328      
C        C      0.669300000000     0.487933333333     0.027080000000     0.478      
N        N      0.602145000000     0.456266666667     0.018880000000    -0.147      
O        O      0.560715000000     0.541566666667     0.198540000000    -0.388      
O        O      0.593400000000     0.573066666667     0.015440000000    -0.382      
O        O      0.680975000000     0.513433333333     0.019180000000    -0.481      
O        O      0.679790000000     0.461500000000     0.038180000000    -0.465      
O        O      0.522275000000     0.620066666667     0.141860000000    -0.43       
O        O      0.507740000000     0.579833333333     0.184380000000    -0.443      
Tb       Tb     0.801795000000     0.435616666667     0.002314000000     1.587      
C        C      0.839200000000     0.650966666667     0.013820000000     0.089      
H        H      0.821550000000     0.649666666667     0.010340000000     0.018      
C        C      0.850250000000     0.348400000000     0.013380000000    -0.138      
C        C      0.876700000000     0.350433333333     0.017860000000     0.113      
H        H      0.884850000000     0.370700000000     0.017920000000     0.001      
C        C      0.890680000000     0.654833333333     0.022240000000    -0.206      
C        C      0.877550000000     0.625233333333     0.023080000000     0.116      
H        H      0.886900000000     0.606000000000     0.026740000000     0.013      
C        C      0.833900000000     0.378466666667     0.009000000000     0.33       
C        C      0.919300000000     0.654600000000     0.027080000000     0.476      
N        N      0.852145000000     0.622933333333     0.018880000000    -0.147      
O        O      0.810715000000     0.374900000000     0.198540000000    -0.388      
O        O      0.843400000000     0.406400000000     0.015440000000    -0.382      
O        O      0.930975000000     0.346766666667     0.019180000000    -0.478      
O        O      0.929790000000     0.628166666667     0.038180000000    -0.463      
O        O      0.772275000000     0.453400000000     0.141860000000    -0.44       
O        O      0.757740000000     0.413166666667     0.184380000000    -0.449      
Tb       Tb     0.948205000000     0.602283333333     0.097686000000     1.595      
C        C      0.910800000000     0.484300000000     0.086180000000     0.091      
H        H      0.928450000000     0.483000000000     0.089660000000     0.021      
C        C      0.899750000000     0.515066666667     0.086620000000    -0.138      
C        C      0.873300000000     0.517100000000     0.082140000000     0.112      
H        H      0.865150000000     0.537366666667     0.082080000000     0.001      
C        C      0.859320000000     0.488166666667     0.077760000000    -0.204      
C        C      0.872450000000     0.458566666667     0.076920000000     0.116      
H        H      0.863100000000     0.439333333333     0.073260000000     0.013      
C        C      0.916100000000     0.545133333333     0.091000000000     0.329      
C        C      0.830700000000     0.487933333333     0.072920000000     0.478      
N        N      0.897855000000     0.456266666667     0.081120000000    -0.146      
O        O      0.939285000000     0.541566666667     0.101460000000    -0.385      
O        O      0.906600000000     0.573066666667     0.084560000000    -0.383      
O        O      0.819025000000     0.513433333333     0.080820000000    -0.481      
O        O      0.820210000000     0.461500000000     0.061820000000    -0.465      
O        O      0.977725000000     0.620066666667     0.158140000000    -0.404      
O        O      0.992260000000     0.579833333333     0.115620000000    -0.407      
Tb       Tb     0.698205000000     0.435616666667     0.097686000000     1.587      
C        C      0.660800000000     0.650966666667     0.086180000000     0.091      
H        H      0.678450000000     0.649666666667     0.089660000000     0.018      
C        C      0.649750000000     0.348400000000     0.086620000000    -0.139      
C        C      0.623300000000     0.350433333333     0.082140000000     0.112      
H        H      0.615150000000     0.370700000000     0.082080000000     0.001      
C        C      0.609320000000     0.654833333333     0.077760000000    -0.204      
C        C      0.622450000000     0.625233333333     0.076920000000     0.116      
H        H      0.613100000000     0.606000000000     0.073260000000     0.013      
C        C      0.666100000000     0.378466666667     0.091000000000     0.33       
C        C      0.580700000000     0.654600000000     0.072920000000     0.476      
N        N      0.647855000000     0.622933333333     0.081120000000    -0.147      
O        O      0.689285000000     0.374900000000     0.101460000000    -0.388      
O        O      0.656600000000     0.406400000000     0.084560000000    -0.382      
O        O      0.569025000000     0.346766666667     0.080820000000    -0.481      
O        O      0.570210000000     0.628166666667     0.061820000000    -0.465      
O        O      0.727725000000     0.453400000000     0.158140000000    -0.44       
O        O      0.742260000000     0.413166666667     0.115620000000    -0.449      
S        S      0.500000000000     0.400440000000     0.050000000000     0.612      
S        S      0.750000000000     0.567106666667     0.050000000000     0.701      
S        S      0.500000000000     0.599560000000     0.150000000000     0.615      
S        S      0.750000000000     0.432893333333     0.150000000000     0.701      
Tb       Tb     0.948205000000     0.397716666667     0.397686000000     1.589      
C        C      0.910800000000     0.515700000000     0.386180000000     0.09       
H        H      0.928450000000     0.517000000000     0.389660000000     0.021      
C        C      0.899750000000     0.484933333333     0.386620000000    -0.137      
C        C      0.873300000000     0.482900000000     0.382140000000     0.111      
H        H      0.865150000000     0.462633333333     0.382080000000     0.001      
C        C      0.859320000000     0.511833333333     0.377760000000    -0.204      
C        C      0.872450000000     0.541433333333     0.376920000000     0.116      
H        H      0.863100000000     0.560666666667     0.373260000000     0.013      
C        C      0.916100000000     0.454866666667     0.391000000000     0.326      
C        C      0.830700000000     0.512066666667     0.372920000000     0.478      
N        N      0.897855000000     0.543733333333     0.381120000000    -0.146      
O        O      0.939285000000     0.458433333333     0.201460000000    -0.382      
O        O      0.906600000000     0.426933333333     0.384560000000    -0.382      
O        O      0.819025000000     0.486566666667     0.380820000000    -0.481      
O        O      0.820210000000     0.538500000000     0.361820000000    -0.465      
O        O      0.977725000000     0.379933333333     0.258140000000    -0.402      
O        O      0.992260000000     0.420166666667     0.215620000000    -0.404      
Tb       Tb     0.698205000000     0.564383333333     0.397686000000     1.587      
C        C      0.660800000000     0.349033333333     0.386180000000     0.089      
H        H      0.678450000000     0.350333333333     0.389660000000     0.018      
C        C      0.649750000000     0.651600000000     0.386620000000    -0.138      
C        C      0.623300000000     0.649566666667     0.382140000000     0.113      
H        H      0.615150000000     0.629300000000     0.382080000000     0.001      
C        C      0.609320000000     0.345166666667     0.377760000000    -0.205      
C        C      0.622450000000     0.374766666667     0.376920000000     0.116      
H        H      0.613100000000     0.394000000000     0.373260000000     0.013      
C        C      0.666100000000     0.621533333333     0.391000000000     0.33       
C        C      0.580700000000     0.345400000000     0.372920000000     0.475      
N        N      0.647855000000     0.377066666667     0.381120000000    -0.146      
O        O      0.689285000000     0.625100000000     0.201460000000    -0.388      
O        O      0.656600000000     0.593600000000     0.384560000000    -0.382      
O        O      0.569025000000     0.653233333333     0.380820000000    -0.479      
O        O      0.570210000000     0.371833333333     0.361820000000    -0.465      
O        O      0.727725000000     0.546600000000     0.258140000000    -0.44       
O        O      0.742260000000     0.586833333333     0.215620000000    -0.449      
Tb       Tb     0.551795000000     0.397716666667     0.302314000000     1.573      
C        C      0.589200000000     0.515700000000     0.313820000000     0.093      
H        H      0.571550000000     0.517000000000     0.310340000000     0.016      
C        C      0.600250000000     0.484933333333     0.313380000000    -0.141      
C        C      0.626700000000     0.482900000000     0.317860000000     0.113      
H        H      0.634850000000     0.462633333333     0.317920000000     0          
C        C      0.640680000000     0.511833333333     0.322240000000    -0.205      
C        C      0.627550000000     0.541433333333     0.323080000000     0.117      
H        H      0.636900000000     0.560666666667     0.326740000000     0.013      
C        C      0.583900000000     0.454866666667     0.309000000000     0.33       
C        C      0.669300000000     0.512066666667     0.327080000000     0.478      
N        N      0.602145000000     0.543733333333     0.318880000000    -0.147      
O        O      0.560715000000     0.458433333333     0.298540000000    -0.391      
O        O      0.593400000000     0.426933333333     0.315440000000    -0.382      
O        O      0.680975000000     0.486566666667     0.319180000000    -0.481      
O        O      0.679790000000     0.538500000000     0.338180000000    -0.465      
O        O      0.522275000000     0.379933333333     0.241860000000    -0.431      
O        O      0.507740000000     0.420166666667     0.284380000000    -0.445      
Tb       Tb     0.801795000000     0.564383333333     0.302314000000     1.587      
C        C      0.839200000000     0.349033333333     0.313820000000     0.091      
H        H      0.821550000000     0.350333333333     0.310340000000     0.018      
C        C      0.850250000000     0.651600000000     0.313380000000    -0.139      
C        C      0.876700000000     0.649566666667     0.317860000000     0.112      
H        H      0.884850000000     0.629300000000     0.317920000000     0          
C        C      0.890680000000     0.345166666667     0.322240000000    -0.205      
C        C      0.877550000000     0.374766666667     0.323080000000     0.116      
H        H      0.886900000000     0.394000000000     0.326740000000     0.013      
C        C      0.833900000000     0.621533333333     0.309000000000     0.33       
C        C      0.919300000000     0.345400000000     0.327080000000     0.477      
N        N      0.852145000000     0.377066666667     0.318880000000    -0.147      
O        O      0.810715000000     0.625100000000     0.298540000000    -0.388      
O        O      0.843400000000     0.593600000000     0.315440000000    -0.383      
O        O      0.930975000000     0.653233333333     0.319180000000    -0.481      
O        O      0.929790000000     0.371833333333     0.338180000000    -0.463      
O        O      0.772275000000     0.546600000000     0.241860000000    -0.44       
O        O      0.757740000000     0.586833333333     0.284380000000    -0.449      
Tb       Tb     0.551795000000     0.602283333333     0.202314000000     1.567      
C        C      0.589200000000     0.484300000000     0.213820000000     0.092      
H        H      0.571550000000     0.483000000000     0.210340000000     0.015      
C        C      0.600250000000     0.515066666667     0.213380000000    -0.14       
C        C      0.626700000000     0.517100000000     0.217860000000     0.112      
H        H      0.634850000000     0.537366666667     0.217920000000     0          
C        C      0.640680000000     0.488166666667     0.222240000000    -0.205      
C        C      0.627550000000     0.458566666667     0.223080000000     0.117      
H        H      0.636900000000     0.439333333333     0.226740000000     0.013      
C        C      0.583900000000     0.545133333333     0.209000000000     0.328      
C        C      0.669300000000     0.487933333333     0.227080000000     0.478      
N        N      0.602145000000     0.456266666667     0.218880000000    -0.147      
O        O      0.560715000000     0.541566666667     0.398540000000    -0.388      
O        O      0.593400000000     0.573066666667     0.215440000000    -0.382      
O        O      0.680975000000     0.513433333333     0.219180000000    -0.481      
O        O      0.679790000000     0.461500000000     0.238180000000    -0.465      
O        O      0.522275000000     0.620066666667     0.341860000000    -0.43       
O        O      0.507740000000     0.579833333333     0.384380000000    -0.443      
Tb       Tb     0.801795000000     0.435616666667     0.202314000000     1.587      
C        C      0.839200000000     0.650966666667     0.213820000000     0.089      
H        H      0.821550000000     0.649666666667     0.210340000000     0.018      
C        C      0.850250000000     0.348400000000     0.213380000000    -0.138      
C        C      0.876700000000     0.350433333333     0.217860000000     0.113      
H        H      0.884850000000     0.370700000000     0.217920000000     0.001      
C        C      0.890680000000     0.654833333333     0.222240000000    -0.206      
C        C      0.877550000000     0.625233333333     0.223080000000     0.116      
H        H      0.886900000000     0.606000000000     0.226740000000     0.013      
C        C      0.833900000000     0.378466666667     0.209000000000     0.33       
C        C      0.919300000000     0.654600000000     0.227080000000     0.476      
N        N      0.852145000000     0.622933333333     0.218880000000    -0.147      
O        O      0.810715000000     0.374900000000     0.398540000000    -0.388      
O        O      0.843400000000     0.406400000000     0.215440000000    -0.382      
O        O      0.930975000000     0.346766666667     0.219180000000    -0.478      
O        O      0.929790000000     0.628166666667     0.238180000000    -0.463      
O        O      0.772275000000     0.453400000000     0.341860000000    -0.44       
O        O      0.757740000000     0.413166666667     0.384380000000    -0.449      
Tb       Tb     0.948205000000     0.602283333333     0.297686000000     1.595      
C        C      0.910800000000     0.484300000000     0.286180000000     0.091      
H        H      0.928450000000     0.483000000000     0.289660000000     0.021      
C        C      0.899750000000     0.515066666667     0.286620000000    -0.138      
C        C      0.873300000000     0.517100000000     0.282140000000     0.112      
H        H      0.865150000000     0.537366666667     0.282080000000     0.001      
C        C      0.859320000000     0.488166666667     0.277760000000    -0.204      
C        C      0.872450000000     0.458566666667     0.276920000000     0.116      
H        H      0.863100000000     0.439333333333     0.273260000000     0.013      
C        C      0.916100000000     0.545133333333     0.291000000000     0.329      
C        C      0.830700000000     0.487933333333     0.272920000000     0.478      
N        N      0.897855000000     0.456266666667     0.281120000000    -0.146      
O        O      0.939285000000     0.541566666667     0.301460000000    -0.385      
O        O      0.906600000000     0.573066666667     0.284560000000    -0.383      
O        O      0.819025000000     0.513433333333     0.280820000000    -0.481      
O        O      0.820210000000     0.461500000000     0.261820000000    -0.465      
O        O      0.977725000000     0.620066666667     0.358140000000    -0.404      
O        O      0.992260000000     0.579833333333     0.315620000000    -0.407      
Tb       Tb     0.698205000000     0.435616666667     0.297686000000     1.587      
C        C      0.660800000000     0.650966666667     0.286180000000     0.091      
H        H      0.678450000000     0.649666666667     0.289660000000     0.018      
C        C      0.649750000000     0.348400000000     0.286620000000    -0.139      
C        C      0.623300000000     0.350433333333     0.282140000000     0.112      
H        H      0.615150000000     0.370700000000     0.282080000000     0.001      
C        C      0.609320000000     0.654833333333     0.277760000000    -0.204      
C        C      0.622450000000     0.625233333333     0.276920000000     0.116      
H        H      0.613100000000     0.606000000000     0.273260000000     0.013      
C        C      0.666100000000     0.378466666667     0.291000000000     0.33       
C        C      0.580700000000     0.654600000000     0.272920000000     0.476      
N        N      0.647855000000     0.622933333333     0.281120000000    -0.147      
O        O      0.689285000000     0.374900000000     0.301460000000    -0.388      
O        O      0.656600000000     0.406400000000     0.284560000000    -0.382      
O        O      0.569025000000     0.346766666667     0.280820000000    -0.481      
O        O      0.570210000000     0.628166666667     0.261820000000    -0.465      
O        O      0.727725000000     0.453400000000     0.358140000000    -0.44       
O        O      0.742260000000     0.413166666667     0.315620000000    -0.449      
S        S      0.500000000000     0.400440000000     0.250000000000     0.612      
S        S      0.750000000000     0.567106666667     0.250000000000     0.701      
S        S      0.500000000000     0.599560000000     0.350000000000     0.615      
S        S      0.750000000000     0.432893333333     0.350000000000     0.701      
Tb       Tb     0.948205000000     0.397716666667     0.597686000000     1.589      
C        C      0.910800000000     0.515700000000     0.586180000000     0.09       
H        H      0.928450000000     0.517000000000     0.589660000000     0.021      
C        C      0.899750000000     0.484933333333     0.586620000000    -0.137      
C        C      0.873300000000     0.482900000000     0.582140000000     0.111      
H        H      0.865150000000     0.462633333333     0.582080000000     0.001      
C        C      0.859320000000     0.511833333333     0.577760000000    -0.204      
C        C      0.872450000000     0.541433333333     0.576920000000     0.116      
H        H      0.863100000000     0.560666666667     0.573260000000     0.013      
C        C      0.916100000000     0.454866666667     0.591000000000     0.326      
C        C      0.830700000000     0.512066666667     0.572920000000     0.478      
N        N      0.897855000000     0.543733333333     0.581120000000    -0.146      
O        O      0.939285000000     0.458433333333     0.401460000000    -0.382      
O        O      0.906600000000     0.426933333333     0.584560000000    -0.382      
O        O      0.819025000000     0.486566666667     0.580820000000    -0.481      
O        O      0.820210000000     0.538500000000     0.561820000000    -0.465      
O        O      0.977725000000     0.379933333333     0.458140000000    -0.402      
O        O      0.992260000000     0.420166666667     0.415620000000    -0.404      
Tb       Tb     0.698205000000     0.564383333333     0.597686000000     1.587      
C        C      0.660800000000     0.349033333333     0.586180000000     0.089      
H        H      0.678450000000     0.350333333333     0.589660000000     0.018      
C        C      0.649750000000     0.651600000000     0.586620000000    -0.138      
C        C      0.623300000000     0.649566666667     0.582140000000     0.113      
H        H      0.615150000000     0.629300000000     0.582080000000     0.001      
C        C      0.609320000000     0.345166666667     0.577760000000    -0.205      
C        C      0.622450000000     0.374766666667     0.576920000000     0.116      
H        H      0.613100000000     0.394000000000     0.573260000000     0.013      
C        C      0.666100000000     0.621533333333     0.591000000000     0.33       
C        C      0.580700000000     0.345400000000     0.572920000000     0.475      
N        N      0.647855000000     0.377066666667     0.581120000000    -0.146      
O        O      0.689285000000     0.625100000000     0.401460000000    -0.388      
O        O      0.656600000000     0.593600000000     0.584560000000    -0.382      
O        O      0.569025000000     0.653233333333     0.580820000000    -0.479      
O        O      0.570210000000     0.371833333333     0.561820000000    -0.465      
O        O      0.727725000000     0.546600000000     0.458140000000    -0.44       
O        O      0.742260000000     0.586833333333     0.415620000000    -0.449      
Tb       Tb     0.551795000000     0.397716666667     0.502314000000     1.573      
C        C      0.589200000000     0.515700000000     0.513820000000     0.093      
H        H      0.571550000000     0.517000000000     0.510340000000     0.016      
C        C      0.600250000000     0.484933333333     0.513380000000    -0.141      
C        C      0.626700000000     0.482900000000     0.517860000000     0.113      
H        H      0.634850000000     0.462633333333     0.517920000000     0          
C        C      0.640680000000     0.511833333333     0.522240000000    -0.205      
C        C      0.627550000000     0.541433333333     0.523080000000     0.117      
H        H      0.636900000000     0.560666666667     0.526740000000     0.013      
C        C      0.583900000000     0.454866666667     0.509000000000     0.33       
C        C      0.669300000000     0.512066666667     0.527080000000     0.478      
N        N      0.602145000000     0.543733333333     0.518880000000    -0.147      
O        O      0.560715000000     0.458433333333     0.498540000000    -0.391      
O        O      0.593400000000     0.426933333333     0.515440000000    -0.382      
O        O      0.680975000000     0.486566666667     0.519180000000    -0.481      
O        O      0.679790000000     0.538500000000     0.538180000000    -0.465      
O        O      0.522275000000     0.379933333333     0.441860000000    -0.431      
O        O      0.507740000000     0.420166666667     0.484380000000    -0.445      
Tb       Tb     0.801795000000     0.564383333333     0.502314000000     1.587      
C        C      0.839200000000     0.349033333333     0.513820000000     0.091      
H        H      0.821550000000     0.350333333333     0.510340000000     0.018      
C        C      0.850250000000     0.651600000000     0.513380000000    -0.139      
C        C      0.876700000000     0.649566666667     0.517860000000     0.112      
H        H      0.884850000000     0.629300000000     0.517920000000     0          
C        C      0.890680000000     0.345166666667     0.522240000000    -0.205      
C        C      0.877550000000     0.374766666667     0.523080000000     0.116      
H        H      0.886900000000     0.394000000000     0.526740000000     0.013      
C        C      0.833900000000     0.621533333333     0.509000000000     0.33       
C        C      0.919300000000     0.345400000000     0.527080000000     0.477      
N        N      0.852145000000     0.377066666667     0.518880000000    -0.147      
O        O      0.810715000000     0.625100000000     0.498540000000    -0.388      
O        O      0.843400000000     0.593600000000     0.515440000000    -0.383      
O        O      0.930975000000     0.653233333333     0.519180000000    -0.481      
O        O      0.929790000000     0.371833333333     0.538180000000    -0.463      
O        O      0.772275000000     0.546600000000     0.441860000000    -0.44       
O        O      0.757740000000     0.586833333333     0.484380000000    -0.449      
Tb       Tb     0.551795000000     0.602283333333     0.402314000000     1.567      
C        C      0.589200000000     0.484300000000     0.413820000000     0.092      
H        H      0.571550000000     0.483000000000     0.410340000000     0.015      
C        C      0.600250000000     0.515066666667     0.413380000000    -0.14       
C        C      0.626700000000     0.517100000000     0.417860000000     0.112      
H        H      0.634850000000     0.537366666667     0.417920000000     0          
C        C      0.640680000000     0.488166666667     0.422240000000    -0.205      
C        C      0.627550000000     0.458566666667     0.423080000000     0.117      
H        H      0.636900000000     0.439333333333     0.426740000000     0.013      
C        C      0.583900000000     0.545133333333     0.409000000000     0.328      
C        C      0.669300000000     0.487933333333     0.427080000000     0.478      
N        N      0.602145000000     0.456266666667     0.418880000000    -0.147      
O        O      0.560715000000     0.541566666667     0.598540000000    -0.388      
O        O      0.593400000000     0.573066666667     0.415440000000    -0.382      
O        O      0.680975000000     0.513433333333     0.419180000000    -0.481      
O        O      0.679790000000     0.461500000000     0.438180000000    -0.465      
O        O      0.522275000000     0.620066666667     0.541860000000    -0.43       
O        O      0.507740000000     0.579833333333     0.584380000000    -0.443      
Tb       Tb     0.801795000000     0.435616666667     0.402314000000     1.587      
C        C      0.839200000000     0.650966666667     0.413820000000     0.089      
H        H      0.821550000000     0.649666666667     0.410340000000     0.018      
C        C      0.850250000000     0.348400000000     0.413380000000    -0.138      
C        C      0.876700000000     0.350433333333     0.417860000000     0.113      
H        H      0.884850000000     0.370700000000     0.417920000000     0.001      
C        C      0.890680000000     0.654833333333     0.422240000000    -0.206      
C        C      0.877550000000     0.625233333333     0.423080000000     0.116      
H        H      0.886900000000     0.606000000000     0.426740000000     0.013      
C        C      0.833900000000     0.378466666667     0.409000000000     0.33       
C        C      0.919300000000     0.654600000000     0.427080000000     0.476      
N        N      0.852145000000     0.622933333333     0.418880000000    -0.147      
O        O      0.810715000000     0.374900000000     0.598540000000    -0.388      
O        O      0.843400000000     0.406400000000     0.415440000000    -0.382      
O        O      0.930975000000     0.346766666667     0.419180000000    -0.478      
O        O      0.929790000000     0.628166666667     0.438180000000    -0.463      
O        O      0.772275000000     0.453400000000     0.541860000000    -0.44       
O        O      0.757740000000     0.413166666667     0.584380000000    -0.449      
Tb       Tb     0.948205000000     0.602283333333     0.497686000000     1.595      
C        C      0.910800000000     0.484300000000     0.486180000000     0.091      
H        H      0.928450000000     0.483000000000     0.489660000000     0.021      
C        C      0.899750000000     0.515066666667     0.486620000000    -0.138      
C        C      0.873300000000     0.517100000000     0.482140000000     0.112      
H        H      0.865150000000     0.537366666667     0.482080000000     0.001      
C        C      0.859320000000     0.488166666667     0.477760000000    -0.204      
C        C      0.872450000000     0.458566666667     0.476920000000     0.116      
H        H      0.863100000000     0.439333333333     0.473260000000     0.013      
C        C      0.916100000000     0.545133333333     0.491000000000     0.329      
C        C      0.830700000000     0.487933333333     0.472920000000     0.478      
N        N      0.897855000000     0.456266666667     0.481120000000    -0.146      
O        O      0.939285000000     0.541566666667     0.501460000000    -0.385      
O        O      0.906600000000     0.573066666667     0.484560000000    -0.383      
O        O      0.819025000000     0.513433333333     0.480820000000    -0.481      
O        O      0.820210000000     0.461500000000     0.461820000000    -0.465      
O        O      0.977725000000     0.620066666667     0.558140000000    -0.404      
O        O      0.992260000000     0.579833333333     0.515620000000    -0.407      
Tb       Tb     0.698205000000     0.435616666667     0.497686000000     1.587      
C        C      0.660800000000     0.650966666667     0.486180000000     0.091      
H        H      0.678450000000     0.649666666667     0.489660000000     0.018      
C        C      0.649750000000     0.348400000000     0.486620000000    -0.139      
C        C      0.623300000000     0.350433333333     0.482140000000     0.112      
H        H      0.615150000000     0.370700000000     0.482080000000     0.001      
C        C      0.609320000000     0.654833333333     0.477760000000    -0.204      
C        C      0.622450000000     0.625233333333     0.476920000000     0.116      
H        H      0.613100000000     0.606000000000     0.473260000000     0.013      
C        C      0.666100000000     0.378466666667     0.491000000000     0.33       
C        C      0.580700000000     0.654600000000     0.472920000000     0.476      
N        N      0.647855000000     0.622933333333     0.481120000000    -0.147      
O        O      0.689285000000     0.374900000000     0.501460000000    -0.388      
O        O      0.656600000000     0.406400000000     0.484560000000    -0.382      
O        O      0.569025000000     0.346766666667     0.480820000000    -0.481      
O        O      0.570210000000     0.628166666667     0.461820000000    -0.465      
O        O      0.727725000000     0.453400000000     0.558140000000    -0.44       
O        O      0.742260000000     0.413166666667     0.515620000000    -0.449      
S        S      0.500000000000     0.400440000000     0.450000000000     0.612      
S        S      0.750000000000     0.567106666667     0.450000000000     0.701      
S        S      0.500000000000     0.599560000000     0.550000000000     0.615      
S        S      0.750000000000     0.432893333333     0.550000000000     0.701      
Tb       Tb     0.948205000000     0.397716666667     0.797686000000     1.589      
C        C      0.910800000000     0.515700000000     0.786180000000     0.09       
H        H      0.928450000000     0.517000000000     0.789660000000     0.021      
C        C      0.899750000000     0.484933333333     0.786620000000    -0.137      
C        C      0.873300000000     0.482900000000     0.782140000000     0.111      
H        H      0.865150000000     0.462633333333     0.782080000000     0.001      
C        C      0.859320000000     0.511833333333     0.777760000000    -0.204      
C        C      0.872450000000     0.541433333333     0.776920000000     0.116      
H        H      0.863100000000     0.560666666667     0.773260000000     0.013      
C        C      0.916100000000     0.454866666667     0.791000000000     0.326      
C        C      0.830700000000     0.512066666667     0.772920000000     0.478      
N        N      0.897855000000     0.543733333333     0.781120000000    -0.146      
O        O      0.939285000000     0.458433333333     0.601460000000    -0.382      
O        O      0.906600000000     0.426933333333     0.784560000000    -0.382      
O        O      0.819025000000     0.486566666667     0.780820000000    -0.481      
O        O      0.820210000000     0.538500000000     0.761820000000    -0.465      
O        O      0.977725000000     0.379933333333     0.658140000000    -0.402      
O        O      0.992260000000     0.420166666667     0.615620000000    -0.404      
Tb       Tb     0.698205000000     0.564383333333     0.797686000000     1.587      
C        C      0.660800000000     0.349033333333     0.786180000000     0.089      
H        H      0.678450000000     0.350333333333     0.789660000000     0.018      
C        C      0.649750000000     0.651600000000     0.786620000000    -0.138      
C        C      0.623300000000     0.649566666667     0.782140000000     0.113      
H        H      0.615150000000     0.629300000000     0.782080000000     0.001      
C        C      0.609320000000     0.345166666667     0.777760000000    -0.205      
C        C      0.622450000000     0.374766666667     0.776920000000     0.116      
H        H      0.613100000000     0.394000000000     0.773260000000     0.013      
C        C      0.666100000000     0.621533333333     0.791000000000     0.33       
C        C      0.580700000000     0.345400000000     0.772920000000     0.475      
N        N      0.647855000000     0.377066666667     0.781120000000    -0.146      
O        O      0.689285000000     0.625100000000     0.601460000000    -0.388      
O        O      0.656600000000     0.593600000000     0.784560000000    -0.382      
O        O      0.569025000000     0.653233333333     0.780820000000    -0.479      
O        O      0.570210000000     0.371833333333     0.761820000000    -0.465      
O        O      0.727725000000     0.546600000000     0.658140000000    -0.44       
O        O      0.742260000000     0.586833333333     0.615620000000    -0.449      
Tb       Tb     0.551795000000     0.397716666667     0.702314000000     1.573      
C        C      0.589200000000     0.515700000000     0.713820000000     0.093      
H        H      0.571550000000     0.517000000000     0.710340000000     0.016      
C        C      0.600250000000     0.484933333333     0.713380000000    -0.141      
C        C      0.626700000000     0.482900000000     0.717860000000     0.113      
H        H      0.634850000000     0.462633333333     0.717920000000     0          
C        C      0.640680000000     0.511833333333     0.722240000000    -0.205      
C        C      0.627550000000     0.541433333333     0.723080000000     0.117      
H        H      0.636900000000     0.560666666667     0.726740000000     0.013      
C        C      0.583900000000     0.454866666667     0.709000000000     0.33       
C        C      0.669300000000     0.512066666667     0.727080000000     0.478      
N        N      0.602145000000     0.543733333333     0.718880000000    -0.147      
O        O      0.560715000000     0.458433333333     0.698540000000    -0.391      
O        O      0.593400000000     0.426933333333     0.715440000000    -0.382      
O        O      0.680975000000     0.486566666667     0.719180000000    -0.481      
O        O      0.679790000000     0.538500000000     0.738180000000    -0.465      
O        O      0.522275000000     0.379933333333     0.641860000000    -0.431      
O        O      0.507740000000     0.420166666667     0.684380000000    -0.445      
Tb       Tb     0.801795000000     0.564383333333     0.702314000000     1.587      
C        C      0.839200000000     0.349033333333     0.713820000000     0.091      
H        H      0.821550000000     0.350333333333     0.710340000000     0.018      
C        C      0.850250000000     0.651600000000     0.713380000000    -0.139      
C        C      0.876700000000     0.649566666667     0.717860000000     0.112      
H        H      0.884850000000     0.629300000000     0.717920000000     0          
C        C      0.890680000000     0.345166666667     0.722240000000    -0.205      
C        C      0.877550000000     0.374766666667     0.723080000000     0.116      
H        H      0.886900000000     0.394000000000     0.726740000000     0.013      
C        C      0.833900000000     0.621533333333     0.709000000000     0.33       
C        C      0.919300000000     0.345400000000     0.727080000000     0.477      
N        N      0.852145000000     0.377066666667     0.718880000000    -0.147      
O        O      0.810715000000     0.625100000000     0.698540000000    -0.388      
O        O      0.843400000000     0.593600000000     0.715440000000    -0.383      
O        O      0.930975000000     0.653233333333     0.719180000000    -0.481      
O        O      0.929790000000     0.371833333333     0.738180000000    -0.463      
O        O      0.772275000000     0.546600000000     0.641860000000    -0.44       
O        O      0.757740000000     0.586833333333     0.684380000000    -0.449      
Tb       Tb     0.551795000000     0.602283333333     0.602314000000     1.567      
C        C      0.589200000000     0.484300000000     0.613820000000     0.092      
H        H      0.571550000000     0.483000000000     0.610340000000     0.015      
C        C      0.600250000000     0.515066666667     0.613380000000    -0.14       
C        C      0.626700000000     0.517100000000     0.617860000000     0.112      
H        H      0.634850000000     0.537366666667     0.617920000000     0          
C        C      0.640680000000     0.488166666667     0.622240000000    -0.205      
C        C      0.627550000000     0.458566666667     0.623080000000     0.117      
H        H      0.636900000000     0.439333333333     0.626740000000     0.013      
C        C      0.583900000000     0.545133333333     0.609000000000     0.328      
C        C      0.669300000000     0.487933333333     0.627080000000     0.478      
N        N      0.602145000000     0.456266666667     0.618880000000    -0.147      
O        O      0.560715000000     0.541566666667     0.798540000000    -0.388      
O        O      0.593400000000     0.573066666667     0.615440000000    -0.382      
O        O      0.680975000000     0.513433333333     0.619180000000    -0.481      
O        O      0.679790000000     0.461500000000     0.638180000000    -0.465      
O        O      0.522275000000     0.620066666667     0.741860000000    -0.43       
O        O      0.507740000000     0.579833333333     0.784380000000    -0.443      
Tb       Tb     0.801795000000     0.435616666667     0.602314000000     1.587      
C        C      0.839200000000     0.650966666667     0.613820000000     0.089      
H        H      0.821550000000     0.649666666667     0.610340000000     0.018      
C        C      0.850250000000     0.348400000000     0.613380000000    -0.138      
C        C      0.876700000000     0.350433333333     0.617860000000     0.113      
H        H      0.884850000000     0.370700000000     0.617920000000     0.001      
C        C      0.890680000000     0.654833333333     0.622240000000    -0.206      
C        C      0.877550000000     0.625233333333     0.623080000000     0.116      
H        H      0.886900000000     0.606000000000     0.626740000000     0.013      
C        C      0.833900000000     0.378466666667     0.609000000000     0.33       
C        C      0.919300000000     0.654600000000     0.627080000000     0.476      
N        N      0.852145000000     0.622933333333     0.618880000000    -0.147      
O        O      0.810715000000     0.374900000000     0.798540000000    -0.388      
O        O      0.843400000000     0.406400000000     0.615440000000    -0.382      
O        O      0.930975000000     0.346766666667     0.619180000000    -0.478      
O        O      0.929790000000     0.628166666667     0.638180000000    -0.463      
O        O      0.772275000000     0.453400000000     0.741860000000    -0.44       
O        O      0.757740000000     0.413166666667     0.784380000000    -0.449      
Tb       Tb     0.948205000000     0.602283333333     0.697686000000     1.595      
C        C      0.910800000000     0.484300000000     0.686180000000     0.091      
H        H      0.928450000000     0.483000000000     0.689660000000     0.021      
C        C      0.899750000000     0.515066666667     0.686620000000    -0.138      
C        C      0.873300000000     0.517100000000     0.682140000000     0.112      
H        H      0.865150000000     0.537366666667     0.682080000000     0.001      
C        C      0.859320000000     0.488166666667     0.677760000000    -0.204      
C        C      0.872450000000     0.458566666667     0.676920000000     0.116      
H        H      0.863100000000     0.439333333333     0.673260000000     0.013      
C        C      0.916100000000     0.545133333333     0.691000000000     0.329      
C        C      0.830700000000     0.487933333333     0.672920000000     0.478      
N        N      0.897855000000     0.456266666667     0.681120000000    -0.146      
O        O      0.939285000000     0.541566666667     0.701460000000    -0.385      
O        O      0.906600000000     0.573066666667     0.684560000000    -0.383      
O        O      0.819025000000     0.513433333333     0.680820000000    -0.481      
O        O      0.820210000000     0.461500000000     0.661820000000    -0.465      
O        O      0.977725000000     0.620066666667     0.758140000000    -0.404      
O        O      0.992260000000     0.579833333333     0.715620000000    -0.407      
Tb       Tb     0.698205000000     0.435616666667     0.697686000000     1.587      
C        C      0.660800000000     0.650966666667     0.686180000000     0.091      
H        H      0.678450000000     0.649666666667     0.689660000000     0.018      
C        C      0.649750000000     0.348400000000     0.686620000000    -0.139      
C        C      0.623300000000     0.350433333333     0.682140000000     0.112      
H        H      0.615150000000     0.370700000000     0.682080000000     0.001      
C        C      0.609320000000     0.654833333333     0.677760000000    -0.204      
C        C      0.622450000000     0.625233333333     0.676920000000     0.116      
H        H      0.613100000000     0.606000000000     0.673260000000     0.013      
C        C      0.666100000000     0.378466666667     0.691000000000     0.33       
C        C      0.580700000000     0.654600000000     0.672920000000     0.476      
N        N      0.647855000000     0.622933333333     0.681120000000    -0.147      
O        O      0.689285000000     0.374900000000     0.701460000000    -0.388      
O        O      0.656600000000     0.406400000000     0.684560000000    -0.382      
O        O      0.569025000000     0.346766666667     0.680820000000    -0.481      
O        O      0.570210000000     0.628166666667     0.661820000000    -0.465      
O        O      0.727725000000     0.453400000000     0.758140000000    -0.44       
O        O      0.742260000000     0.413166666667     0.715620000000    -0.449      
S        S      0.500000000000     0.400440000000     0.650000000000     0.612      
S        S      0.750000000000     0.567106666667     0.650000000000     0.701      
S        S      0.500000000000     0.599560000000     0.750000000000     0.615      
S        S      0.750000000000     0.432893333333     0.750000000000     0.701      
Tb       Tb     0.948205000000     0.397716666667     0.997686000000     1.589      
C        C      0.910800000000     0.515700000000     0.986180000000     0.09       
H        H      0.928450000000     0.517000000000     0.989660000000     0.021      
C        C      0.899750000000     0.484933333333     0.986620000000    -0.137      
C        C      0.873300000000     0.482900000000     0.982140000000     0.111      
H        H      0.865150000000     0.462633333333     0.982080000000     0.001      
C        C      0.859320000000     0.511833333333     0.977760000000    -0.204      
C        C      0.872450000000     0.541433333333     0.976920000000     0.116      
H        H      0.863100000000     0.560666666667     0.973260000000     0.013      
C        C      0.916100000000     0.454866666667     0.991000000000     0.326      
C        C      0.830700000000     0.512066666667     0.972920000000     0.478      
N        N      0.897855000000     0.543733333333     0.981120000000    -0.146      
O        O      0.939285000000     0.458433333333     0.801460000000    -0.382      
O        O      0.906600000000     0.426933333333     0.984560000000    -0.382      
O        O      0.819025000000     0.486566666667     0.980820000000    -0.481      
O        O      0.820210000000     0.538500000000     0.961820000000    -0.465      
O        O      0.977725000000     0.379933333333     0.858140000000    -0.402      
O        O      0.992260000000     0.420166666667     0.815620000000    -0.404      
Tb       Tb     0.698205000000     0.564383333333     0.997686000000     1.587      
C        C      0.660800000000     0.349033333333     0.986180000000     0.089      
H        H      0.678450000000     0.350333333333     0.989660000000     0.018      
C        C      0.649750000000     0.651600000000     0.986620000000    -0.138      
C        C      0.623300000000     0.649566666667     0.982140000000     0.113      
H        H      0.615150000000     0.629300000000     0.982080000000     0.001      
C        C      0.609320000000     0.345166666667     0.977760000000    -0.205      
C        C      0.622450000000     0.374766666667     0.976920000000     0.116      
H        H      0.613100000000     0.394000000000     0.973260000000     0.013      
C        C      0.666100000000     0.621533333333     0.991000000000     0.33       
C        C      0.580700000000     0.345400000000     0.972920000000     0.475      
N        N      0.647855000000     0.377066666667     0.981120000000    -0.146      
O        O      0.689285000000     0.625100000000     0.801460000000    -0.388      
O        O      0.656600000000     0.593600000000     0.984560000000    -0.382      
O        O      0.569025000000     0.653233333333     0.980820000000    -0.479      
O        O      0.570210000000     0.371833333333     0.961820000000    -0.465      
O        O      0.727725000000     0.546600000000     0.858140000000    -0.44       
O        O      0.742260000000     0.586833333333     0.815620000000    -0.449      
Tb       Tb     0.551795000000     0.397716666667     0.902314000000     1.573      
C        C      0.589200000000     0.515700000000     0.913820000000     0.093      
H        H      0.571550000000     0.517000000000     0.910340000000     0.016      
C        C      0.600250000000     0.484933333333     0.913380000000    -0.141      
C        C      0.626700000000     0.482900000000     0.917860000000     0.113      
H        H      0.634850000000     0.462633333333     0.917920000000     0          
C        C      0.640680000000     0.511833333333     0.922240000000    -0.205      
C        C      0.627550000000     0.541433333333     0.923080000000     0.117      
H        H      0.636900000000     0.560666666667     0.926740000000     0.013      
C        C      0.583900000000     0.454866666667     0.909000000000     0.33       
C        C      0.669300000000     0.512066666667     0.927080000000     0.478      
N        N      0.602145000000     0.543733333333     0.918880000000    -0.147      
O        O      0.560715000000     0.458433333333     0.898540000000    -0.391      
O        O      0.593400000000     0.426933333333     0.915440000000    -0.382      
O        O      0.680975000000     0.486566666667     0.919180000000    -0.481      
O        O      0.679790000000     0.538500000000     0.938180000000    -0.465      
O        O      0.522275000000     0.379933333333     0.841860000000    -0.431      
O        O      0.507740000000     0.420166666667     0.884380000000    -0.445      
Tb       Tb     0.801795000000     0.564383333333     0.902314000000     1.587      
C        C      0.839200000000     0.349033333333     0.913820000000     0.091      
H        H      0.821550000000     0.350333333333     0.910340000000     0.018      
C        C      0.850250000000     0.651600000000     0.913380000000    -0.139      
C        C      0.876700000000     0.649566666667     0.917860000000     0.112      
H        H      0.884850000000     0.629300000000     0.917920000000     0          
C        C      0.890680000000     0.345166666667     0.922240000000    -0.205      
C        C      0.877550000000     0.374766666667     0.923080000000     0.116      
H        H      0.886900000000     0.394000000000     0.926740000000     0.013      
C        C      0.833900000000     0.621533333333     0.909000000000     0.33       
C        C      0.919300000000     0.345400000000     0.927080000000     0.477      
N        N      0.852145000000     0.377066666667     0.918880000000    -0.147      
O        O      0.810715000000     0.625100000000     0.898540000000    -0.388      
O        O      0.843400000000     0.593600000000     0.915440000000    -0.383      
O        O      0.930975000000     0.653233333333     0.919180000000    -0.481      
O        O      0.929790000000     0.371833333333     0.938180000000    -0.463      
O        O      0.772275000000     0.546600000000     0.841860000000    -0.44       
O        O      0.757740000000     0.586833333333     0.884380000000    -0.449      
Tb       Tb     0.551795000000     0.602283333333     0.802314000000     1.567      
C        C      0.589200000000     0.484300000000     0.813820000000     0.092      
H        H      0.571550000000     0.483000000000     0.810340000000     0.015      
C        C      0.600250000000     0.515066666667     0.813380000000    -0.14       
C        C      0.626700000000     0.517100000000     0.817860000000     0.112      
H        H      0.634850000000     0.537366666667     0.817920000000     0          
C        C      0.640680000000     0.488166666667     0.822240000000    -0.205      
C        C      0.627550000000     0.458566666667     0.823080000000     0.117      
H        H      0.636900000000     0.439333333333     0.826740000000     0.013      
C        C      0.583900000000     0.545133333333     0.809000000000     0.328      
C        C      0.669300000000     0.487933333333     0.827080000000     0.478      
N        N      0.602145000000     0.456266666667     0.818880000000    -0.147      
O        O      0.560715000000     0.541566666667     0.998540000000    -0.388      
O        O      0.593400000000     0.573066666667     0.815440000000    -0.382      
O        O      0.680975000000     0.513433333333     0.819180000000    -0.481      
O        O      0.679790000000     0.461500000000     0.838180000000    -0.465      
O        O      0.522275000000     0.620066666667     0.941860000000    -0.43       
O        O      0.507740000000     0.579833333333     0.984380000000    -0.443      
Tb       Tb     0.801795000000     0.435616666667     0.802314000000     1.587      
C        C      0.839200000000     0.650966666667     0.813820000000     0.089      
H        H      0.821550000000     0.649666666667     0.810340000000     0.018      
C        C      0.850250000000     0.348400000000     0.813380000000    -0.138      
C        C      0.876700000000     0.350433333333     0.817860000000     0.113      
H        H      0.884850000000     0.370700000000     0.817920000000     0.001      
C        C      0.890680000000     0.654833333333     0.822240000000    -0.206      
C        C      0.877550000000     0.625233333333     0.823080000000     0.116      
H        H      0.886900000000     0.606000000000     0.826740000000     0.013      
C        C      0.833900000000     0.378466666667     0.809000000000     0.33       
C        C      0.919300000000     0.654600000000     0.827080000000     0.476      
N        N      0.852145000000     0.622933333333     0.818880000000    -0.147      
O        O      0.810715000000     0.374900000000     0.998540000000    -0.388      
O        O      0.843400000000     0.406400000000     0.815440000000    -0.382      
O        O      0.930975000000     0.346766666667     0.819180000000    -0.478      
O        O      0.929790000000     0.628166666667     0.838180000000    -0.463      
O        O      0.772275000000     0.453400000000     0.941860000000    -0.44       
O        O      0.757740000000     0.413166666667     0.984380000000    -0.449      
Tb       Tb     0.948205000000     0.602283333333     0.897686000000     1.595      
C        C      0.910800000000     0.484300000000     0.886180000000     0.091      
H        H      0.928450000000     0.483000000000     0.889660000000     0.021      
C        C      0.899750000000     0.515066666667     0.886620000000    -0.138      
C        C      0.873300000000     0.517100000000     0.882140000000     0.112      
H        H      0.865150000000     0.537366666667     0.882080000000     0.001      
C        C      0.859320000000     0.488166666667     0.877760000000    -0.204      
C        C      0.872450000000     0.458566666667     0.876920000000     0.116      
H        H      0.863100000000     0.439333333333     0.873260000000     0.013      
C        C      0.916100000000     0.545133333333     0.891000000000     0.329      
C        C      0.830700000000     0.487933333333     0.872920000000     0.478      
N        N      0.897855000000     0.456266666667     0.881120000000    -0.146      
O        O      0.939285000000     0.541566666667     0.901460000000    -0.385      
O        O      0.906600000000     0.573066666667     0.884560000000    -0.383      
O        O      0.819025000000     0.513433333333     0.880820000000    -0.481      
O        O      0.820210000000     0.461500000000     0.861820000000    -0.465      
O        O      0.977725000000     0.620066666667     0.958140000000    -0.404      
O        O      0.992260000000     0.579833333333     0.915620000000    -0.407      
Tb       Tb     0.698205000000     0.435616666667     0.897686000000     1.587      
C        C      0.660800000000     0.650966666667     0.886180000000     0.091      
H        H      0.678450000000     0.649666666667     0.889660000000     0.018      
C        C      0.649750000000     0.348400000000     0.886620000000    -0.139      
C        C      0.623300000000     0.350433333333     0.882140000000     0.112      
H        H      0.615150000000     0.370700000000     0.882080000000     0.001      
C        C      0.609320000000     0.654833333333     0.877760000000    -0.204      
C        C      0.622450000000     0.625233333333     0.876920000000     0.116      
H        H      0.613100000000     0.606000000000     0.873260000000     0.013      
C        C      0.666100000000     0.378466666667     0.891000000000     0.33       
C        C      0.580700000000     0.654600000000     0.872920000000     0.476      
N        N      0.647855000000     0.622933333333     0.881120000000    -0.147      
O        O      0.689285000000     0.374900000000     0.901460000000    -0.388      
O        O      0.656600000000     0.406400000000     0.884560000000    -0.382      
O        O      0.569025000000     0.346766666667     0.880820000000    -0.481      
O        O      0.570210000000     0.628166666667     0.861820000000    -0.465      
O        O      0.727725000000     0.453400000000     0.958140000000    -0.44       
O        O      0.742260000000     0.413166666667     0.915620000000    -0.449      
S        S      0.500000000000     0.400440000000     0.850000000000     0.612      
S        S      0.750000000000     0.567106666667     0.850000000000     0.701      
S        S      0.500000000000     0.599560000000     0.950000000000     0.615      
S        S      0.750000000000     0.432893333333     0.950000000000     0.701      
Tb       Tb     0.948205000000     0.731050000000     0.197686000000     1.589      
C        C      0.910800000000     0.849033333333     0.186180000000     0.09       
H        H      0.928450000000     0.850333333333     0.189660000000     0.021      
C        C      0.899750000000     0.818266666667     0.186620000000    -0.137      
C        C      0.873300000000     0.816233333333     0.182140000000     0.111      
H        H      0.865150000000     0.795966666667     0.182080000000     0.001      
C        C      0.859320000000     0.845166666667     0.177760000000    -0.204      
C        C      0.872450000000     0.874766666667     0.176920000000     0.116      
H        H      0.863100000000     0.894000000000     0.173260000000     0.013      
C        C      0.916100000000     0.788200000000     0.191000000000     0.326      
C        C      0.830700000000     0.845400000000     0.172920000000     0.478      
N        N      0.897855000000     0.877066666667     0.181120000000    -0.146      
O        O      0.939285000000     0.791766666667     0.001460000000    -0.382      
O        O      0.906600000000     0.760266666667     0.184560000000    -0.382      
O        O      0.819025000000     0.819900000000     0.180820000000    -0.481      
O        O      0.820210000000     0.871833333333     0.161820000000    -0.465      
O        O      0.977725000000     0.713266666667     0.058140000000    -0.402      
O        O      0.992260000000     0.753500000000     0.015620000000    -0.404      
Tb       Tb     0.698205000000     0.897716666667     0.197686000000     1.587      
C        C      0.660800000000     0.682366666667     0.186180000000     0.089      
H        H      0.678450000000     0.683666666667     0.189660000000     0.018      
C        C      0.649750000000     0.984933333333     0.186620000000    -0.138      
C        C      0.623300000000     0.982900000000     0.182140000000     0.113      
H        H      0.615150000000     0.962633333333     0.182080000000     0.001      
C        C      0.609320000000     0.678500000000     0.177760000000    -0.205      
C        C      0.622450000000     0.708100000000     0.176920000000     0.116      
H        H      0.613100000000     0.727333333333     0.173260000000     0.013      
C        C      0.666100000000     0.954866666667     0.191000000000     0.33       
C        C      0.580700000000     0.678733333333     0.172920000000     0.475      
N        N      0.647855000000     0.710400000000     0.181120000000    -0.146      
O        O      0.689285000000     0.958433333333     0.001460000000    -0.388      
O        O      0.656600000000     0.926933333333     0.184560000000    -0.382      
O        O      0.569025000000     0.986566666667     0.180820000000    -0.479      
O        O      0.570210000000     0.705166666667     0.161820000000    -0.465      
O        O      0.727725000000     0.879933333333     0.058140000000    -0.44       
O        O      0.742260000000     0.920166666667     0.015620000000    -0.449      
Tb       Tb     0.551795000000     0.731050000000     0.102314000000     1.573      
C        C      0.589200000000     0.849033333333     0.113820000000     0.093      
H        H      0.571550000000     0.850333333333     0.110340000000     0.016      
C        C      0.600250000000     0.818266666667     0.113380000000    -0.141      
C        C      0.626700000000     0.816233333333     0.117860000000     0.113      
H        H      0.634850000000     0.795966666667     0.117920000000     0          
C        C      0.640680000000     0.845166666667     0.122240000000    -0.205      
C        C      0.627550000000     0.874766666667     0.123080000000     0.117      
H        H      0.636900000000     0.894000000000     0.126740000000     0.013      
C        C      0.583900000000     0.788200000000     0.109000000000     0.33       
C        C      0.669300000000     0.845400000000     0.127080000000     0.478      
N        N      0.602145000000     0.877066666667     0.118880000000    -0.147      
O        O      0.560715000000     0.791766666667     0.098540000000    -0.391      
O        O      0.593400000000     0.760266666667     0.115440000000    -0.382      
O        O      0.680975000000     0.819900000000     0.119180000000    -0.481      
O        O      0.679790000000     0.871833333333     0.138180000000    -0.465      
O        O      0.522275000000     0.713266666667     0.041860000000    -0.431      
O        O      0.507740000000     0.753500000000     0.084380000000    -0.445      
Tb       Tb     0.801795000000     0.897716666667     0.102314000000     1.587      
C        C      0.839200000000     0.682366666667     0.113820000000     0.091      
H        H      0.821550000000     0.683666666667     0.110340000000     0.018      
C        C      0.850250000000     0.984933333333     0.113380000000    -0.139      
C        C      0.876700000000     0.982900000000     0.117860000000     0.112      
H        H      0.884850000000     0.962633333333     0.117920000000     0          
C        C      0.890680000000     0.678500000000     0.122240000000    -0.205      
C        C      0.877550000000     0.708100000000     0.123080000000     0.116      
H        H      0.886900000000     0.727333333333     0.126740000000     0.013      
C        C      0.833900000000     0.954866666667     0.109000000000     0.33       
C        C      0.919300000000     0.678733333333     0.127080000000     0.477      
N        N      0.852145000000     0.710400000000     0.118880000000    -0.147      
O        O      0.810715000000     0.958433333333     0.098540000000    -0.388      
O        O      0.843400000000     0.926933333333     0.115440000000    -0.383      
O        O      0.930975000000     0.986566666667     0.119180000000    -0.481      
O        O      0.929790000000     0.705166666667     0.138180000000    -0.463      
O        O      0.772275000000     0.879933333333     0.041860000000    -0.44       
O        O      0.757740000000     0.920166666667     0.084380000000    -0.449      
Tb       Tb     0.551795000000     0.935616666667     0.002314000000     1.567      
C        C      0.589200000000     0.817633333333     0.013820000000     0.092      
H        H      0.571550000000     0.816333333333     0.010340000000     0.015      
C        C      0.600250000000     0.848400000000     0.013380000000    -0.14       
C        C      0.626700000000     0.850433333333     0.017860000000     0.112      
H        H      0.634850000000     0.870700000000     0.017920000000     0          
C        C      0.640680000000     0.821500000000     0.022240000000    -0.205      
C        C      0.627550000000     0.791900000000     0.023080000000     0.117      
H        H      0.636900000000     0.772666666667     0.026740000000     0.013      
C        C      0.583900000000     0.878466666667     0.009000000000     0.328      
C        C      0.669300000000     0.821266666667     0.027080000000     0.478      
N        N      0.602145000000     0.789600000000     0.018880000000    -0.147      
O        O      0.560715000000     0.874900000000     0.198540000000    -0.388      
O        O      0.593400000000     0.906400000000     0.015440000000    -0.382      
O        O      0.680975000000     0.846766666667     0.019180000000    -0.481      
O        O      0.679790000000     0.794833333333     0.038180000000    -0.465      
O        O      0.522275000000     0.953400000000     0.141860000000    -0.43       
O        O      0.507740000000     0.913166666667     0.184380000000    -0.443      
Tb       Tb     0.801795000000     0.768950000000     0.002314000000     1.587      
C        C      0.839200000000     0.984300000000     0.013820000000     0.089      
H        H      0.821550000000     0.983000000000     0.010340000000     0.018      
C        C      0.850250000000     0.681733333333     0.013380000000    -0.138      
C        C      0.876700000000     0.683766666667     0.017860000000     0.113      
H        H      0.884850000000     0.704033333333     0.017920000000     0.001      
C        C      0.890680000000     0.988166666667     0.022240000000    -0.206      
C        C      0.877550000000     0.958566666667     0.023080000000     0.116      
H        H      0.886900000000     0.939333333333     0.026740000000     0.013      
C        C      0.833900000000     0.711800000000     0.009000000000     0.33       
C        C      0.919300000000     0.987933333333     0.027080000000     0.476      
N        N      0.852145000000     0.956266666667     0.018880000000    -0.147      
O        O      0.810715000000     0.708233333333     0.198540000000    -0.388      
O        O      0.843400000000     0.739733333333     0.015440000000    -0.382      
O        O      0.930975000000     0.680100000000     0.019180000000    -0.478      
O        O      0.929790000000     0.961500000000     0.038180000000    -0.463      
O        O      0.772275000000     0.786733333333     0.141860000000    -0.44       
O        O      0.757740000000     0.746500000000     0.184380000000    -0.449      
Tb       Tb     0.948205000000     0.935616666667     0.097686000000     1.595      
C        C      0.910800000000     0.817633333333     0.086180000000     0.091      
H        H      0.928450000000     0.816333333333     0.089660000000     0.021      
C        C      0.899750000000     0.848400000000     0.086620000000    -0.138      
C        C      0.873300000000     0.850433333333     0.082140000000     0.112      
H        H      0.865150000000     0.870700000000     0.082080000000     0.001      
C        C      0.859320000000     0.821500000000     0.077760000000    -0.204      
C        C      0.872450000000     0.791900000000     0.076920000000     0.116      
H        H      0.863100000000     0.772666666667     0.073260000000     0.013      
C        C      0.916100000000     0.878466666667     0.091000000000     0.329      
C        C      0.830700000000     0.821266666667     0.072920000000     0.478      
N        N      0.897855000000     0.789600000000     0.081120000000    -0.146      
O        O      0.939285000000     0.874900000000     0.101460000000    -0.385      
O        O      0.906600000000     0.906400000000     0.084560000000    -0.383      
O        O      0.819025000000     0.846766666667     0.080820000000    -0.481      
O        O      0.820210000000     0.794833333333     0.061820000000    -0.465      
O        O      0.977725000000     0.953400000000     0.158140000000    -0.404      
O        O      0.992260000000     0.913166666667     0.115620000000    -0.407      
Tb       Tb     0.698205000000     0.768950000000     0.097686000000     1.587      
C        C      0.660800000000     0.984300000000     0.086180000000     0.091      
H        H      0.678450000000     0.983000000000     0.089660000000     0.018      
C        C      0.649750000000     0.681733333333     0.086620000000    -0.139      
C        C      0.623300000000     0.683766666667     0.082140000000     0.112      
H        H      0.615150000000     0.704033333333     0.082080000000     0.001      
C        C      0.609320000000     0.988166666667     0.077760000000    -0.204      
C        C      0.622450000000     0.958566666667     0.076920000000     0.116      
H        H      0.613100000000     0.939333333333     0.073260000000     0.013      
C        C      0.666100000000     0.711800000000     0.091000000000     0.33       
C        C      0.580700000000     0.987933333333     0.072920000000     0.476      
N        N      0.647855000000     0.956266666667     0.081120000000    -0.147      
O        O      0.689285000000     0.708233333333     0.101460000000    -0.388      
O        O      0.656600000000     0.739733333333     0.084560000000    -0.382      
O        O      0.569025000000     0.680100000000     0.080820000000    -0.481      
O        O      0.570210000000     0.961500000000     0.061820000000    -0.465      
O        O      0.727725000000     0.786733333333     0.158140000000    -0.44       
O        O      0.742260000000     0.746500000000     0.115620000000    -0.449      
S        S      0.500000000000     0.733773333333     0.050000000000     0.612      
S        S      0.750000000000     0.900440000000     0.050000000000     0.701      
S        S      0.500000000000     0.932893333333     0.150000000000     0.615      
S        S      0.750000000000     0.766226666667     0.150000000000     0.701      
Tb       Tb     0.948205000000     0.731050000000     0.397686000000     1.589      
C        C      0.910800000000     0.849033333333     0.386180000000     0.09       
H        H      0.928450000000     0.850333333333     0.389660000000     0.021      
C        C      0.899750000000     0.818266666667     0.386620000000    -0.137      
C        C      0.873300000000     0.816233333333     0.382140000000     0.111      
H        H      0.865150000000     0.795966666667     0.382080000000     0.001      
C        C      0.859320000000     0.845166666667     0.377760000000    -0.204      
C        C      0.872450000000     0.874766666667     0.376920000000     0.116      
H        H      0.863100000000     0.894000000000     0.373260000000     0.013      
C        C      0.916100000000     0.788200000000     0.391000000000     0.326      
C        C      0.830700000000     0.845400000000     0.372920000000     0.478      
N        N      0.897855000000     0.877066666667     0.381120000000    -0.146      
O        O      0.939285000000     0.791766666667     0.201460000000    -0.382      
O        O      0.906600000000     0.760266666667     0.384560000000    -0.382      
O        O      0.819025000000     0.819900000000     0.380820000000    -0.481      
O        O      0.820210000000     0.871833333333     0.361820000000    -0.465      
O        O      0.977725000000     0.713266666667     0.258140000000    -0.402      
O        O      0.992260000000     0.753500000000     0.215620000000    -0.404      
Tb       Tb     0.698205000000     0.897716666667     0.397686000000     1.587      
C        C      0.660800000000     0.682366666667     0.386180000000     0.089      
H        H      0.678450000000     0.683666666667     0.389660000000     0.018      
C        C      0.649750000000     0.984933333333     0.386620000000    -0.138      
C        C      0.623300000000     0.982900000000     0.382140000000     0.113      
H        H      0.615150000000     0.962633333333     0.382080000000     0.001      
C        C      0.609320000000     0.678500000000     0.377760000000    -0.205      
C        C      0.622450000000     0.708100000000     0.376920000000     0.116      
H        H      0.613100000000     0.727333333333     0.373260000000     0.013      
C        C      0.666100000000     0.954866666667     0.391000000000     0.33       
C        C      0.580700000000     0.678733333333     0.372920000000     0.475      
N        N      0.647855000000     0.710400000000     0.381120000000    -0.146      
O        O      0.689285000000     0.958433333333     0.201460000000    -0.388      
O        O      0.656600000000     0.926933333333     0.384560000000    -0.382      
O        O      0.569025000000     0.986566666667     0.380820000000    -0.479      
O        O      0.570210000000     0.705166666667     0.361820000000    -0.465      
O        O      0.727725000000     0.879933333333     0.258140000000    -0.44       
O        O      0.742260000000     0.920166666667     0.215620000000    -0.449      
Tb       Tb     0.551795000000     0.731050000000     0.302314000000     1.573      
C        C      0.589200000000     0.849033333333     0.313820000000     0.093      
H        H      0.571550000000     0.850333333333     0.310340000000     0.016      
C        C      0.600250000000     0.818266666667     0.313380000000    -0.141      
C        C      0.626700000000     0.816233333333     0.317860000000     0.113      
H        H      0.634850000000     0.795966666667     0.317920000000     0          
C        C      0.640680000000     0.845166666667     0.322240000000    -0.205      
C        C      0.627550000000     0.874766666667     0.323080000000     0.117      
H        H      0.636900000000     0.894000000000     0.326740000000     0.013      
C        C      0.583900000000     0.788200000000     0.309000000000     0.33       
C        C      0.669300000000     0.845400000000     0.327080000000     0.478      
N        N      0.602145000000     0.877066666667     0.318880000000    -0.147      
O        O      0.560715000000     0.791766666667     0.298540000000    -0.391      
O        O      0.593400000000     0.760266666667     0.315440000000    -0.382      
O        O      0.680975000000     0.819900000000     0.319180000000    -0.481      
O        O      0.679790000000     0.871833333333     0.338180000000    -0.465      
O        O      0.522275000000     0.713266666667     0.241860000000    -0.431      
O        O      0.507740000000     0.753500000000     0.284380000000    -0.445      
Tb       Tb     0.801795000000     0.897716666667     0.302314000000     1.587      
C        C      0.839200000000     0.682366666667     0.313820000000     0.091      
H        H      0.821550000000     0.683666666667     0.310340000000     0.018      
C        C      0.850250000000     0.984933333333     0.313380000000    -0.139      
C        C      0.876700000000     0.982900000000     0.317860000000     0.112      
H        H      0.884850000000     0.962633333333     0.317920000000     0          
C        C      0.890680000000     0.678500000000     0.322240000000    -0.205      
C        C      0.877550000000     0.708100000000     0.323080000000     0.116      
H        H      0.886900000000     0.727333333333     0.326740000000     0.013      
C        C      0.833900000000     0.954866666667     0.309000000000     0.33       
C        C      0.919300000000     0.678733333333     0.327080000000     0.477      
N        N      0.852145000000     0.710400000000     0.318880000000    -0.147      
O        O      0.810715000000     0.958433333333     0.298540000000    -0.388      
O        O      0.843400000000     0.926933333333     0.315440000000    -0.383      
O        O      0.930975000000     0.986566666667     0.319180000000    -0.481      
O        O      0.929790000000     0.705166666667     0.338180000000    -0.463      
O        O      0.772275000000     0.879933333333     0.241860000000    -0.44       
O        O      0.757740000000     0.920166666667     0.284380000000    -0.449      
Tb       Tb     0.551795000000     0.935616666667     0.202314000000     1.567      
C        C      0.589200000000     0.817633333333     0.213820000000     0.092      
H        H      0.571550000000     0.816333333333     0.210340000000     0.015      
C        C      0.600250000000     0.848400000000     0.213380000000    -0.14       
C        C      0.626700000000     0.850433333333     0.217860000000     0.112      
H        H      0.634850000000     0.870700000000     0.217920000000     0          
C        C      0.640680000000     0.821500000000     0.222240000000    -0.205      
C        C      0.627550000000     0.791900000000     0.223080000000     0.117      
H        H      0.636900000000     0.772666666667     0.226740000000     0.013      
C        C      0.583900000000     0.878466666667     0.209000000000     0.328      
C        C      0.669300000000     0.821266666667     0.227080000000     0.478      
N        N      0.602145000000     0.789600000000     0.218880000000    -0.147      
O        O      0.560715000000     0.874900000000     0.398540000000    -0.388      
O        O      0.593400000000     0.906400000000     0.215440000000    -0.382      
O        O      0.680975000000     0.846766666667     0.219180000000    -0.481      
O        O      0.679790000000     0.794833333333     0.238180000000    -0.465      
O        O      0.522275000000     0.953400000000     0.341860000000    -0.43       
O        O      0.507740000000     0.913166666667     0.384380000000    -0.443      
Tb       Tb     0.801795000000     0.768950000000     0.202314000000     1.587      
C        C      0.839200000000     0.984300000000     0.213820000000     0.089      
H        H      0.821550000000     0.983000000000     0.210340000000     0.018      
C        C      0.850250000000     0.681733333333     0.213380000000    -0.138      
C        C      0.876700000000     0.683766666667     0.217860000000     0.113      
H        H      0.884850000000     0.704033333333     0.217920000000     0.001      
C        C      0.890680000000     0.988166666667     0.222240000000    -0.206      
C        C      0.877550000000     0.958566666667     0.223080000000     0.116      
H        H      0.886900000000     0.939333333333     0.226740000000     0.013      
C        C      0.833900000000     0.711800000000     0.209000000000     0.33       
C        C      0.919300000000     0.987933333333     0.227080000000     0.476      
N        N      0.852145000000     0.956266666667     0.218880000000    -0.147      
O        O      0.810715000000     0.708233333333     0.398540000000    -0.388      
O        O      0.843400000000     0.739733333333     0.215440000000    -0.382      
O        O      0.930975000000     0.680100000000     0.219180000000    -0.478      
O        O      0.929790000000     0.961500000000     0.238180000000    -0.463      
O        O      0.772275000000     0.786733333333     0.341860000000    -0.44       
O        O      0.757740000000     0.746500000000     0.384380000000    -0.449      
Tb       Tb     0.948205000000     0.935616666667     0.297686000000     1.595      
C        C      0.910800000000     0.817633333333     0.286180000000     0.091      
H        H      0.928450000000     0.816333333333     0.289660000000     0.021      
C        C      0.899750000000     0.848400000000     0.286620000000    -0.138      
C        C      0.873300000000     0.850433333333     0.282140000000     0.112      
H        H      0.865150000000     0.870700000000     0.282080000000     0.001      
C        C      0.859320000000     0.821500000000     0.277760000000    -0.204      
C        C      0.872450000000     0.791900000000     0.276920000000     0.116      
H        H      0.863100000000     0.772666666667     0.273260000000     0.013      
C        C      0.916100000000     0.878466666667     0.291000000000     0.329      
C        C      0.830700000000     0.821266666667     0.272920000000     0.478      
N        N      0.897855000000     0.789600000000     0.281120000000    -0.146      
O        O      0.939285000000     0.874900000000     0.301460000000    -0.385      
O        O      0.906600000000     0.906400000000     0.284560000000    -0.383      
O        O      0.819025000000     0.846766666667     0.280820000000    -0.481      
O        O      0.820210000000     0.794833333333     0.261820000000    -0.465      
O        O      0.977725000000     0.953400000000     0.358140000000    -0.404      
O        O      0.992260000000     0.913166666667     0.315620000000    -0.407      
Tb       Tb     0.698205000000     0.768950000000     0.297686000000     1.587      
C        C      0.660800000000     0.984300000000     0.286180000000     0.091      
H        H      0.678450000000     0.983000000000     0.289660000000     0.018      
C        C      0.649750000000     0.681733333333     0.286620000000    -0.139      
C        C      0.623300000000     0.683766666667     0.282140000000     0.112      
H        H      0.615150000000     0.704033333333     0.282080000000     0.001      
C        C      0.609320000000     0.988166666667     0.277760000000    -0.204      
C        C      0.622450000000     0.958566666667     0.276920000000     0.116      
H        H      0.613100000000     0.939333333333     0.273260000000     0.013      
C        C      0.666100000000     0.711800000000     0.291000000000     0.33       
C        C      0.580700000000     0.987933333333     0.272920000000     0.476      
N        N      0.647855000000     0.956266666667     0.281120000000    -0.147      
O        O      0.689285000000     0.708233333333     0.301460000000    -0.388      
O        O      0.656600000000     0.739733333333     0.284560000000    -0.382      
O        O      0.569025000000     0.680100000000     0.280820000000    -0.481      
O        O      0.570210000000     0.961500000000     0.261820000000    -0.465      
O        O      0.727725000000     0.786733333333     0.358140000000    -0.44       
O        O      0.742260000000     0.746500000000     0.315620000000    -0.449      
S        S      0.500000000000     0.733773333333     0.250000000000     0.612      
S        S      0.750000000000     0.900440000000     0.250000000000     0.701      
S        S      0.500000000000     0.932893333333     0.350000000000     0.615      
S        S      0.750000000000     0.766226666667     0.350000000000     0.701      
Tb       Tb     0.948205000000     0.731050000000     0.597686000000     1.589      
C        C      0.910800000000     0.849033333333     0.586180000000     0.09       
H        H      0.928450000000     0.850333333333     0.589660000000     0.021      
C        C      0.899750000000     0.818266666667     0.586620000000    -0.137      
C        C      0.873300000000     0.816233333333     0.582140000000     0.111      
H        H      0.865150000000     0.795966666667     0.582080000000     0.001      
C        C      0.859320000000     0.845166666667     0.577760000000    -0.204      
C        C      0.872450000000     0.874766666667     0.576920000000     0.116      
H        H      0.863100000000     0.894000000000     0.573260000000     0.013      
C        C      0.916100000000     0.788200000000     0.591000000000     0.326      
C        C      0.830700000000     0.845400000000     0.572920000000     0.478      
N        N      0.897855000000     0.877066666667     0.581120000000    -0.146      
O        O      0.939285000000     0.791766666667     0.401460000000    -0.382      
O        O      0.906600000000     0.760266666667     0.584560000000    -0.382      
O        O      0.819025000000     0.819900000000     0.580820000000    -0.481      
O        O      0.820210000000     0.871833333333     0.561820000000    -0.465      
O        O      0.977725000000     0.713266666667     0.458140000000    -0.402      
O        O      0.992260000000     0.753500000000     0.415620000000    -0.404      
Tb       Tb     0.698205000000     0.897716666667     0.597686000000     1.587      
C        C      0.660800000000     0.682366666667     0.586180000000     0.089      
H        H      0.678450000000     0.683666666667     0.589660000000     0.018      
C        C      0.649750000000     0.984933333333     0.586620000000    -0.138      
C        C      0.623300000000     0.982900000000     0.582140000000     0.113      
H        H      0.615150000000     0.962633333333     0.582080000000     0.001      
C        C      0.609320000000     0.678500000000     0.577760000000    -0.205      
C        C      0.622450000000     0.708100000000     0.576920000000     0.116      
H        H      0.613100000000     0.727333333333     0.573260000000     0.013      
C        C      0.666100000000     0.954866666667     0.591000000000     0.33       
C        C      0.580700000000     0.678733333333     0.572920000000     0.475      
N        N      0.647855000000     0.710400000000     0.581120000000    -0.146      
O        O      0.689285000000     0.958433333333     0.401460000000    -0.388      
O        O      0.656600000000     0.926933333333     0.584560000000    -0.382      
O        O      0.569025000000     0.986566666667     0.580820000000    -0.479      
O        O      0.570210000000     0.705166666667     0.561820000000    -0.465      
O        O      0.727725000000     0.879933333333     0.458140000000    -0.44       
O        O      0.742260000000     0.920166666667     0.415620000000    -0.449      
Tb       Tb     0.551795000000     0.731050000000     0.502314000000     1.573      
C        C      0.589200000000     0.849033333333     0.513820000000     0.093      
H        H      0.571550000000     0.850333333333     0.510340000000     0.016      
C        C      0.600250000000     0.818266666667     0.513380000000    -0.141      
C        C      0.626700000000     0.816233333333     0.517860000000     0.113      
H        H      0.634850000000     0.795966666667     0.517920000000     0          
C        C      0.640680000000     0.845166666667     0.522240000000    -0.205      
C        C      0.627550000000     0.874766666667     0.523080000000     0.117      
H        H      0.636900000000     0.894000000000     0.526740000000     0.013      
C        C      0.583900000000     0.788200000000     0.509000000000     0.33       
C        C      0.669300000000     0.845400000000     0.527080000000     0.478      
N        N      0.602145000000     0.877066666667     0.518880000000    -0.147      
O        O      0.560715000000     0.791766666667     0.498540000000    -0.391      
O        O      0.593400000000     0.760266666667     0.515440000000    -0.382      
O        O      0.680975000000     0.819900000000     0.519180000000    -0.481      
O        O      0.679790000000     0.871833333333     0.538180000000    -0.465      
O        O      0.522275000000     0.713266666667     0.441860000000    -0.431      
O        O      0.507740000000     0.753500000000     0.484380000000    -0.445      
Tb       Tb     0.801795000000     0.897716666667     0.502314000000     1.587      
C        C      0.839200000000     0.682366666667     0.513820000000     0.091      
H        H      0.821550000000     0.683666666667     0.510340000000     0.018      
C        C      0.850250000000     0.984933333333     0.513380000000    -0.139      
C        C      0.876700000000     0.982900000000     0.517860000000     0.112      
H        H      0.884850000000     0.962633333333     0.517920000000     0          
C        C      0.890680000000     0.678500000000     0.522240000000    -0.205      
C        C      0.877550000000     0.708100000000     0.523080000000     0.116      
H        H      0.886900000000     0.727333333333     0.526740000000     0.013      
C        C      0.833900000000     0.954866666667     0.509000000000     0.33       
C        C      0.919300000000     0.678733333333     0.527080000000     0.477      
N        N      0.852145000000     0.710400000000     0.518880000000    -0.147      
O        O      0.810715000000     0.958433333333     0.498540000000    -0.388      
O        O      0.843400000000     0.926933333333     0.515440000000    -0.383      
O        O      0.930975000000     0.986566666667     0.519180000000    -0.481      
O        O      0.929790000000     0.705166666667     0.538180000000    -0.463      
O        O      0.772275000000     0.879933333333     0.441860000000    -0.44       
O        O      0.757740000000     0.920166666667     0.484380000000    -0.449      
Tb       Tb     0.551795000000     0.935616666667     0.402314000000     1.567      
C        C      0.589200000000     0.817633333333     0.413820000000     0.092      
H        H      0.571550000000     0.816333333333     0.410340000000     0.015      
C        C      0.600250000000     0.848400000000     0.413380000000    -0.14       
C        C      0.626700000000     0.850433333333     0.417860000000     0.112      
H        H      0.634850000000     0.870700000000     0.417920000000     0          
C        C      0.640680000000     0.821500000000     0.422240000000    -0.205      
C        C      0.627550000000     0.791900000000     0.423080000000     0.117      
H        H      0.636900000000     0.772666666667     0.426740000000     0.013      
C        C      0.583900000000     0.878466666667     0.409000000000     0.328      
C        C      0.669300000000     0.821266666667     0.427080000000     0.478      
N        N      0.602145000000     0.789600000000     0.418880000000    -0.147      
O        O      0.560715000000     0.874900000000     0.598540000000    -0.388      
O        O      0.593400000000     0.906400000000     0.415440000000    -0.382      
O        O      0.680975000000     0.846766666667     0.419180000000    -0.481      
O        O      0.679790000000     0.794833333333     0.438180000000    -0.465      
O        O      0.522275000000     0.953400000000     0.541860000000    -0.43       
O        O      0.507740000000     0.913166666667     0.584380000000    -0.443      
Tb       Tb     0.801795000000     0.768950000000     0.402314000000     1.587      
C        C      0.839200000000     0.984300000000     0.413820000000     0.089      
H        H      0.821550000000     0.983000000000     0.410340000000     0.018      
C        C      0.850250000000     0.681733333333     0.413380000000    -0.138      
C        C      0.876700000000     0.683766666667     0.417860000000     0.113      
H        H      0.884850000000     0.704033333333     0.417920000000     0.001      
C        C      0.890680000000     0.988166666667     0.422240000000    -0.206      
C        C      0.877550000000     0.958566666667     0.423080000000     0.116      
H        H      0.886900000000     0.939333333333     0.426740000000     0.013      
C        C      0.833900000000     0.711800000000     0.409000000000     0.33       
C        C      0.919300000000     0.987933333333     0.427080000000     0.476      
N        N      0.852145000000     0.956266666667     0.418880000000    -0.147      
O        O      0.810715000000     0.708233333333     0.598540000000    -0.388      
O        O      0.843400000000     0.739733333333     0.415440000000    -0.382      
O        O      0.930975000000     0.680100000000     0.419180000000    -0.478      
O        O      0.929790000000     0.961500000000     0.438180000000    -0.463      
O        O      0.772275000000     0.786733333333     0.541860000000    -0.44       
O        O      0.757740000000     0.746500000000     0.584380000000    -0.449      
Tb       Tb     0.948205000000     0.935616666667     0.497686000000     1.595      
C        C      0.910800000000     0.817633333333     0.486180000000     0.091      
H        H      0.928450000000     0.816333333333     0.489660000000     0.021      
C        C      0.899750000000     0.848400000000     0.486620000000    -0.138      
C        C      0.873300000000     0.850433333333     0.482140000000     0.112      
H        H      0.865150000000     0.870700000000     0.482080000000     0.001      
C        C      0.859320000000     0.821500000000     0.477760000000    -0.204      
C        C      0.872450000000     0.791900000000     0.476920000000     0.116      
H        H      0.863100000000     0.772666666667     0.473260000000     0.013      
C        C      0.916100000000     0.878466666667     0.491000000000     0.329      
C        C      0.830700000000     0.821266666667     0.472920000000     0.478      
N        N      0.897855000000     0.789600000000     0.481120000000    -0.146      
O        O      0.939285000000     0.874900000000     0.501460000000    -0.385      
O        O      0.906600000000     0.906400000000     0.484560000000    -0.383      
O        O      0.819025000000     0.846766666667     0.480820000000    -0.481      
O        O      0.820210000000     0.794833333333     0.461820000000    -0.465      
O        O      0.977725000000     0.953400000000     0.558140000000    -0.404      
O        O      0.992260000000     0.913166666667     0.515620000000    -0.407      
Tb       Tb     0.698205000000     0.768950000000     0.497686000000     1.587      
C        C      0.660800000000     0.984300000000     0.486180000000     0.091      
H        H      0.678450000000     0.983000000000     0.489660000000     0.018      
C        C      0.649750000000     0.681733333333     0.486620000000    -0.139      
C        C      0.623300000000     0.683766666667     0.482140000000     0.112      
H        H      0.615150000000     0.704033333333     0.482080000000     0.001      
C        C      0.609320000000     0.988166666667     0.477760000000    -0.204      
C        C      0.622450000000     0.958566666667     0.476920000000     0.116      
H        H      0.613100000000     0.939333333333     0.473260000000     0.013      
C        C      0.666100000000     0.711800000000     0.491000000000     0.33       
C        C      0.580700000000     0.987933333333     0.472920000000     0.476      
N        N      0.647855000000     0.956266666667     0.481120000000    -0.147      
O        O      0.689285000000     0.708233333333     0.501460000000    -0.388      
O        O      0.656600000000     0.739733333333     0.484560000000    -0.382      
O        O      0.569025000000     0.680100000000     0.480820000000    -0.481      
O        O      0.570210000000     0.961500000000     0.461820000000    -0.465      
O        O      0.727725000000     0.786733333333     0.558140000000    -0.44       
O        O      0.742260000000     0.746500000000     0.515620000000    -0.449      
S        S      0.500000000000     0.733773333333     0.450000000000     0.612      
S        S      0.750000000000     0.900440000000     0.450000000000     0.701      
S        S      0.500000000000     0.932893333333     0.550000000000     0.615      
S        S      0.750000000000     0.766226666667     0.550000000000     0.701      
Tb       Tb     0.948205000000     0.731050000000     0.797686000000     1.589      
C        C      0.910800000000     0.849033333333     0.786180000000     0.09       
H        H      0.928450000000     0.850333333333     0.789660000000     0.021      
C        C      0.899750000000     0.818266666667     0.786620000000    -0.137      
C        C      0.873300000000     0.816233333333     0.782140000000     0.111      
H        H      0.865150000000     0.795966666667     0.782080000000     0.001      
C        C      0.859320000000     0.845166666667     0.777760000000    -0.204      
C        C      0.872450000000     0.874766666667     0.776920000000     0.116      
H        H      0.863100000000     0.894000000000     0.773260000000     0.013      
C        C      0.916100000000     0.788200000000     0.791000000000     0.326      
C        C      0.830700000000     0.845400000000     0.772920000000     0.478      
N        N      0.897855000000     0.877066666667     0.781120000000    -0.146      
O        O      0.939285000000     0.791766666667     0.601460000000    -0.382      
O        O      0.906600000000     0.760266666667     0.784560000000    -0.382      
O        O      0.819025000000     0.819900000000     0.780820000000    -0.481      
O        O      0.820210000000     0.871833333333     0.761820000000    -0.465      
O        O      0.977725000000     0.713266666667     0.658140000000    -0.402      
O        O      0.992260000000     0.753500000000     0.615620000000    -0.404      
Tb       Tb     0.698205000000     0.897716666667     0.797686000000     1.587      
C        C      0.660800000000     0.682366666667     0.786180000000     0.089      
H        H      0.678450000000     0.683666666667     0.789660000000     0.018      
C        C      0.649750000000     0.984933333333     0.786620000000    -0.138      
C        C      0.623300000000     0.982900000000     0.782140000000     0.113      
H        H      0.615150000000     0.962633333333     0.782080000000     0.001      
C        C      0.609320000000     0.678500000000     0.777760000000    -0.205      
C        C      0.622450000000     0.708100000000     0.776920000000     0.116      
H        H      0.613100000000     0.727333333333     0.773260000000     0.013      
C        C      0.666100000000     0.954866666667     0.791000000000     0.33       
C        C      0.580700000000     0.678733333333     0.772920000000     0.475      
N        N      0.647855000000     0.710400000000     0.781120000000    -0.146      
O        O      0.689285000000     0.958433333333     0.601460000000    -0.388      
O        O      0.656600000000     0.926933333333     0.784560000000    -0.382      
O        O      0.569025000000     0.986566666667     0.780820000000    -0.479      
O        O      0.570210000000     0.705166666667     0.761820000000    -0.465      
O        O      0.727725000000     0.879933333333     0.658140000000    -0.44       
O        O      0.742260000000     0.920166666667     0.615620000000    -0.449      
Tb       Tb     0.551795000000     0.731050000000     0.702314000000     1.573      
C        C      0.589200000000     0.849033333333     0.713820000000     0.093      
H        H      0.571550000000     0.850333333333     0.710340000000     0.016      
C        C      0.600250000000     0.818266666667     0.713380000000    -0.141      
C        C      0.626700000000     0.816233333333     0.717860000000     0.113      
H        H      0.634850000000     0.795966666667     0.717920000000     0          
C        C      0.640680000000     0.845166666667     0.722240000000    -0.205      
C        C      0.627550000000     0.874766666667     0.723080000000     0.117      
H        H      0.636900000000     0.894000000000     0.726740000000     0.013      
C        C      0.583900000000     0.788200000000     0.709000000000     0.33       
C        C      0.669300000000     0.845400000000     0.727080000000     0.478      
N        N      0.602145000000     0.877066666667     0.718880000000    -0.147      
O        O      0.560715000000     0.791766666667     0.698540000000    -0.391      
O        O      0.593400000000     0.760266666667     0.715440000000    -0.382      
O        O      0.680975000000     0.819900000000     0.719180000000    -0.481      
O        O      0.679790000000     0.871833333333     0.738180000000    -0.465      
O        O      0.522275000000     0.713266666667     0.641860000000    -0.431      
O        O      0.507740000000     0.753500000000     0.684380000000    -0.445      
Tb       Tb     0.801795000000     0.897716666667     0.702314000000     1.587      
C        C      0.839200000000     0.682366666667     0.713820000000     0.091      
H        H      0.821550000000     0.683666666667     0.710340000000     0.018      
C        C      0.850250000000     0.984933333333     0.713380000000    -0.139      
C        C      0.876700000000     0.982900000000     0.717860000000     0.112      
H        H      0.884850000000     0.962633333333     0.717920000000     0          
C        C      0.890680000000     0.678500000000     0.722240000000    -0.205      
C        C      0.877550000000     0.708100000000     0.723080000000     0.116      
H        H      0.886900000000     0.727333333333     0.726740000000     0.013      
C        C      0.833900000000     0.954866666667     0.709000000000     0.33       
C        C      0.919300000000     0.678733333333     0.727080000000     0.477      
N        N      0.852145000000     0.710400000000     0.718880000000    -0.147      
O        O      0.810715000000     0.958433333333     0.698540000000    -0.388      
O        O      0.843400000000     0.926933333333     0.715440000000    -0.383      
O        O      0.930975000000     0.986566666667     0.719180000000    -0.481      
O        O      0.929790000000     0.705166666667     0.738180000000    -0.463      
O        O      0.772275000000     0.879933333333     0.641860000000    -0.44       
O        O      0.757740000000     0.920166666667     0.684380000000    -0.449      
Tb       Tb     0.551795000000     0.935616666667     0.602314000000     1.567      
C        C      0.589200000000     0.817633333333     0.613820000000     0.092      
H        H      0.571550000000     0.816333333333     0.610340000000     0.015      
C        C      0.600250000000     0.848400000000     0.613380000000    -0.14       
C        C      0.626700000000     0.850433333333     0.617860000000     0.112      
H        H      0.634850000000     0.870700000000     0.617920000000     0          
C        C      0.640680000000     0.821500000000     0.622240000000    -0.205      
C        C      0.627550000000     0.791900000000     0.623080000000     0.117      
H        H      0.636900000000     0.772666666667     0.626740000000     0.013      
C        C      0.583900000000     0.878466666667     0.609000000000     0.328      
C        C      0.669300000000     0.821266666667     0.627080000000     0.478      
N        N      0.602145000000     0.789600000000     0.618880000000    -0.147      
O        O      0.560715000000     0.874900000000     0.798540000000    -0.388      
O        O      0.593400000000     0.906400000000     0.615440000000    -0.382      
O        O      0.680975000000     0.846766666667     0.619180000000    -0.481      
O        O      0.679790000000     0.794833333333     0.638180000000    -0.465      
O        O      0.522275000000     0.953400000000     0.741860000000    -0.43       
O        O      0.507740000000     0.913166666667     0.784380000000    -0.443      
Tb       Tb     0.801795000000     0.768950000000     0.602314000000     1.587      
C        C      0.839200000000     0.984300000000     0.613820000000     0.089      
H        H      0.821550000000     0.983000000000     0.610340000000     0.018      
C        C      0.850250000000     0.681733333333     0.613380000000    -0.138      
C        C      0.876700000000     0.683766666667     0.617860000000     0.113      
H        H      0.884850000000     0.704033333333     0.617920000000     0.001      
C        C      0.890680000000     0.988166666667     0.622240000000    -0.206      
C        C      0.877550000000     0.958566666667     0.623080000000     0.116      
H        H      0.886900000000     0.939333333333     0.626740000000     0.013      
C        C      0.833900000000     0.711800000000     0.609000000000     0.33       
C        C      0.919300000000     0.987933333333     0.627080000000     0.476      
N        N      0.852145000000     0.956266666667     0.618880000000    -0.147      
O        O      0.810715000000     0.708233333333     0.798540000000    -0.388      
O        O      0.843400000000     0.739733333333     0.615440000000    -0.382      
O        O      0.930975000000     0.680100000000     0.619180000000    -0.478      
O        O      0.929790000000     0.961500000000     0.638180000000    -0.463      
O        O      0.772275000000     0.786733333333     0.741860000000    -0.44       
O        O      0.757740000000     0.746500000000     0.784380000000    -0.449      
Tb       Tb     0.948205000000     0.935616666667     0.697686000000     1.595      
C        C      0.910800000000     0.817633333333     0.686180000000     0.091      
H        H      0.928450000000     0.816333333333     0.689660000000     0.021      
C        C      0.899750000000     0.848400000000     0.686620000000    -0.138      
C        C      0.873300000000     0.850433333333     0.682140000000     0.112      
H        H      0.865150000000     0.870700000000     0.682080000000     0.001      
C        C      0.859320000000     0.821500000000     0.677760000000    -0.204      
C        C      0.872450000000     0.791900000000     0.676920000000     0.116      
H        H      0.863100000000     0.772666666667     0.673260000000     0.013      
C        C      0.916100000000     0.878466666667     0.691000000000     0.329      
C        C      0.830700000000     0.821266666667     0.672920000000     0.478      
N        N      0.897855000000     0.789600000000     0.681120000000    -0.146      
O        O      0.939285000000     0.874900000000     0.701460000000    -0.385      
O        O      0.906600000000     0.906400000000     0.684560000000    -0.383      
O        O      0.819025000000     0.846766666667     0.680820000000    -0.481      
O        O      0.820210000000     0.794833333333     0.661820000000    -0.465      
O        O      0.977725000000     0.953400000000     0.758140000000    -0.404      
O        O      0.992260000000     0.913166666667     0.715620000000    -0.407      
Tb       Tb     0.698205000000     0.768950000000     0.697686000000     1.587      
C        C      0.660800000000     0.984300000000     0.686180000000     0.091      
H        H      0.678450000000     0.983000000000     0.689660000000     0.018      
C        C      0.649750000000     0.681733333333     0.686620000000    -0.139      
C        C      0.623300000000     0.683766666667     0.682140000000     0.112      
H        H      0.615150000000     0.704033333333     0.682080000000     0.001      
C        C      0.609320000000     0.988166666667     0.677760000000    -0.204      
C        C      0.622450000000     0.958566666667     0.676920000000     0.116      
H        H      0.613100000000     0.939333333333     0.673260000000     0.013      
C        C      0.666100000000     0.711800000000     0.691000000000     0.33       
C        C      0.580700000000     0.987933333333     0.672920000000     0.476      
N        N      0.647855000000     0.956266666667     0.681120000000    -0.147      
O        O      0.689285000000     0.708233333333     0.701460000000    -0.388      
O        O      0.656600000000     0.739733333333     0.684560000000    -0.382      
O        O      0.569025000000     0.680100000000     0.680820000000    -0.481      
O        O      0.570210000000     0.961500000000     0.661820000000    -0.465      
O        O      0.727725000000     0.786733333333     0.758140000000    -0.44       
O        O      0.742260000000     0.746500000000     0.715620000000    -0.449      
S        S      0.500000000000     0.733773333333     0.650000000000     0.612      
S        S      0.750000000000     0.900440000000     0.650000000000     0.701      
S        S      0.500000000000     0.932893333333     0.750000000000     0.615      
S        S      0.750000000000     0.766226666667     0.750000000000     0.701      
Tb       Tb     0.948205000000     0.731050000000     0.997686000000     1.589      
C        C      0.910800000000     0.849033333333     0.986180000000     0.09       
H        H      0.928450000000     0.850333333333     0.989660000000     0.021      
C        C      0.899750000000     0.818266666667     0.986620000000    -0.137      
C        C      0.873300000000     0.816233333333     0.982140000000     0.111      
H        H      0.865150000000     0.795966666667     0.982080000000     0.001      
C        C      0.859320000000     0.845166666667     0.977760000000    -0.204      
C        C      0.872450000000     0.874766666667     0.976920000000     0.116      
H        H      0.863100000000     0.894000000000     0.973260000000     0.013      
C        C      0.916100000000     0.788200000000     0.991000000000     0.326      
C        C      0.830700000000     0.845400000000     0.972920000000     0.478      
N        N      0.897855000000     0.877066666667     0.981120000000    -0.146      
O        O      0.939285000000     0.791766666667     0.801460000000    -0.382      
O        O      0.906600000000     0.760266666667     0.984560000000    -0.382      
O        O      0.819025000000     0.819900000000     0.980820000000    -0.481      
O        O      0.820210000000     0.871833333333     0.961820000000    -0.465      
O        O      0.977725000000     0.713266666667     0.858140000000    -0.402      
O        O      0.992260000000     0.753500000000     0.815620000000    -0.404      
Tb       Tb     0.698205000000     0.897716666667     0.997686000000     1.587      
C        C      0.660800000000     0.682366666667     0.986180000000     0.089      
H        H      0.678450000000     0.683666666667     0.989660000000     0.018      
C        C      0.649750000000     0.984933333333     0.986620000000    -0.138      
C        C      0.623300000000     0.982900000000     0.982140000000     0.113      
H        H      0.615150000000     0.962633333333     0.982080000000     0.001      
C        C      0.609320000000     0.678500000000     0.977760000000    -0.205      
C        C      0.622450000000     0.708100000000     0.976920000000     0.116      
H        H      0.613100000000     0.727333333333     0.973260000000     0.013      
C        C      0.666100000000     0.954866666667     0.991000000000     0.33       
C        C      0.580700000000     0.678733333333     0.972920000000     0.475      
N        N      0.647855000000     0.710400000000     0.981120000000    -0.146      
O        O      0.689285000000     0.958433333333     0.801460000000    -0.388      
O        O      0.656600000000     0.926933333333     0.984560000000    -0.382      
O        O      0.569025000000     0.986566666667     0.980820000000    -0.479      
O        O      0.570210000000     0.705166666667     0.961820000000    -0.465      
O        O      0.727725000000     0.879933333333     0.858140000000    -0.44       
O        O      0.742260000000     0.920166666667     0.815620000000    -0.449      
Tb       Tb     0.551795000000     0.731050000000     0.902314000000     1.573      
C        C      0.589200000000     0.849033333333     0.913820000000     0.093      
H        H      0.571550000000     0.850333333333     0.910340000000     0.016      
C        C      0.600250000000     0.818266666667     0.913380000000    -0.141      
C        C      0.626700000000     0.816233333333     0.917860000000     0.113      
H        H      0.634850000000     0.795966666667     0.917920000000     0          
C        C      0.640680000000     0.845166666667     0.922240000000    -0.205      
C        C      0.627550000000     0.874766666667     0.923080000000     0.117      
H        H      0.636900000000     0.894000000000     0.926740000000     0.013      
C        C      0.583900000000     0.788200000000     0.909000000000     0.33       
C        C      0.669300000000     0.845400000000     0.927080000000     0.478      
N        N      0.602145000000     0.877066666667     0.918880000000    -0.147      
O        O      0.560715000000     0.791766666667     0.898540000000    -0.391      
O        O      0.593400000000     0.760266666667     0.915440000000    -0.382      
O        O      0.680975000000     0.819900000000     0.919180000000    -0.481      
O        O      0.679790000000     0.871833333333     0.938180000000    -0.465      
O        O      0.522275000000     0.713266666667     0.841860000000    -0.431      
O        O      0.507740000000     0.753500000000     0.884380000000    -0.445      
Tb       Tb     0.801795000000     0.897716666667     0.902314000000     1.587      
C        C      0.839200000000     0.682366666667     0.913820000000     0.091      
H        H      0.821550000000     0.683666666667     0.910340000000     0.018      
C        C      0.850250000000     0.984933333333     0.913380000000    -0.139      
C        C      0.876700000000     0.982900000000     0.917860000000     0.112      
H        H      0.884850000000     0.962633333333     0.917920000000     0          
C        C      0.890680000000     0.678500000000     0.922240000000    -0.205      
C        C      0.877550000000     0.708100000000     0.923080000000     0.116      
H        H      0.886900000000     0.727333333333     0.926740000000     0.013      
C        C      0.833900000000     0.954866666667     0.909000000000     0.33       
C        C      0.919300000000     0.678733333333     0.927080000000     0.477      
N        N      0.852145000000     0.710400000000     0.918880000000    -0.147      
O        O      0.810715000000     0.958433333333     0.898540000000    -0.388      
O        O      0.843400000000     0.926933333333     0.915440000000    -0.383      
O        O      0.930975000000     0.986566666667     0.919180000000    -0.481      
O        O      0.929790000000     0.705166666667     0.938180000000    -0.463      
O        O      0.772275000000     0.879933333333     0.841860000000    -0.44       
O        O      0.757740000000     0.920166666667     0.884380000000    -0.449      
Tb       Tb     0.551795000000     0.935616666667     0.802314000000     1.567      
C        C      0.589200000000     0.817633333333     0.813820000000     0.092      
H        H      0.571550000000     0.816333333333     0.810340000000     0.015      
C        C      0.600250000000     0.848400000000     0.813380000000    -0.14       
C        C      0.626700000000     0.850433333333     0.817860000000     0.112      
H        H      0.634850000000     0.870700000000     0.817920000000     0          
C        C      0.640680000000     0.821500000000     0.822240000000    -0.205      
C        C      0.627550000000     0.791900000000     0.823080000000     0.117      
H        H      0.636900000000     0.772666666667     0.826740000000     0.013      
C        C      0.583900000000     0.878466666667     0.809000000000     0.328      
C        C      0.669300000000     0.821266666667     0.827080000000     0.478      
N        N      0.602145000000     0.789600000000     0.818880000000    -0.147      
O        O      0.560715000000     0.874900000000     0.998540000000    -0.388      
O        O      0.593400000000     0.906400000000     0.815440000000    -0.382      
O        O      0.680975000000     0.846766666667     0.819180000000    -0.481      
O        O      0.679790000000     0.794833333333     0.838180000000    -0.465      
O        O      0.522275000000     0.953400000000     0.941860000000    -0.43       
O        O      0.507740000000     0.913166666667     0.984380000000    -0.443      
Tb       Tb     0.801795000000     0.768950000000     0.802314000000     1.587      
C        C      0.839200000000     0.984300000000     0.813820000000     0.089      
H        H      0.821550000000     0.983000000000     0.810340000000     0.018      
C        C      0.850250000000     0.681733333333     0.813380000000    -0.138      
C        C      0.876700000000     0.683766666667     0.817860000000     0.113      
H        H      0.884850000000     0.704033333333     0.817920000000     0.001      
C        C      0.890680000000     0.988166666667     0.822240000000    -0.206      
C        C      0.877550000000     0.958566666667     0.823080000000     0.116      
H        H      0.886900000000     0.939333333333     0.826740000000     0.013      
C        C      0.833900000000     0.711800000000     0.809000000000     0.33       
C        C      0.919300000000     0.987933333333     0.827080000000     0.476      
N        N      0.852145000000     0.956266666667     0.818880000000    -0.147      
O        O      0.810715000000     0.708233333333     0.998540000000    -0.388      
O        O      0.843400000000     0.739733333333     0.815440000000    -0.382      
O        O      0.930975000000     0.680100000000     0.819180000000    -0.478      
O        O      0.929790000000     0.961500000000     0.838180000000    -0.463      
O        O      0.772275000000     0.786733333333     0.941860000000    -0.44       
O        O      0.757740000000     0.746500000000     0.984380000000    -0.449      
Tb       Tb     0.948205000000     0.935616666667     0.897686000000     1.595      
C        C      0.910800000000     0.817633333333     0.886180000000     0.091      
H        H      0.928450000000     0.816333333333     0.889660000000     0.021      
C        C      0.899750000000     0.848400000000     0.886620000000    -0.138      
C        C      0.873300000000     0.850433333333     0.882140000000     0.112      
H        H      0.865150000000     0.870700000000     0.882080000000     0.001      
C        C      0.859320000000     0.821500000000     0.877760000000    -0.204      
C        C      0.872450000000     0.791900000000     0.876920000000     0.116      
H        H      0.863100000000     0.772666666667     0.873260000000     0.013      
C        C      0.916100000000     0.878466666667     0.891000000000     0.329      
C        C      0.830700000000     0.821266666667     0.872920000000     0.478      
N        N      0.897855000000     0.789600000000     0.881120000000    -0.146      
O        O      0.939285000000     0.874900000000     0.901460000000    -0.385      
O        O      0.906600000000     0.906400000000     0.884560000000    -0.383      
O        O      0.819025000000     0.846766666667     0.880820000000    -0.481      
O        O      0.820210000000     0.794833333333     0.861820000000    -0.465      
O        O      0.977725000000     0.953400000000     0.958140000000    -0.404      
O        O      0.992260000000     0.913166666667     0.915620000000    -0.407      
Tb       Tb     0.698205000000     0.768950000000     0.897686000000     1.587      
C        C      0.660800000000     0.984300000000     0.886180000000     0.091      
H        H      0.678450000000     0.983000000000     0.889660000000     0.018      
C        C      0.649750000000     0.681733333333     0.886620000000    -0.139      
C        C      0.623300000000     0.683766666667     0.882140000000     0.112      
H        H      0.615150000000     0.704033333333     0.882080000000     0.001      
C        C      0.609320000000     0.988166666667     0.877760000000    -0.204      
C        C      0.622450000000     0.958566666667     0.876920000000     0.116      
H        H      0.613100000000     0.939333333333     0.873260000000     0.013      
C        C      0.666100000000     0.711800000000     0.891000000000     0.33       
C        C      0.580700000000     0.987933333333     0.872920000000     0.476      
N        N      0.647855000000     0.956266666667     0.881120000000    -0.147      
O        O      0.689285000000     0.708233333333     0.901460000000    -0.388      
O        O      0.656600000000     0.739733333333     0.884560000000    -0.382      
O        O      0.569025000000     0.680100000000     0.880820000000    -0.481      
O        O      0.570210000000     0.961500000000     0.861820000000    -0.465      
O        O      0.727725000000     0.786733333333     0.958140000000    -0.44       
O        O      0.742260000000     0.746500000000     0.915620000000    -0.449      
S        S      0.500000000000     0.733773333333     0.850000000000     0.612      
S        S      0.750000000000     0.900440000000     0.850000000000     0.701      
S        S      0.500000000000     0.932893333333     0.950000000000     0.615      
S        S      0.750000000000     0.766226666667     0.950000000000     0.701      


