data_LEJRIC_clean

_audit_creation_method RASPA-1.0
_audit_creation_date 2025-9-8
_audit_author_name ''

_cell_length_a    33.441
_cell_length_b    30.3268
_cell_length_c    45.4902
_cell_angle_alpha 62.123
_cell_angle_beta  81.5454
_cell_angle_gamma 98.4546
_cell_volume      39089.8

_symmetry_cell_setting          triclinic
_symmetry_space_group_name_Hall 'P 1'
_symmetry_space_group_name_H-M  'P 1'
_symmetry_Int_Tables_number     1

_symmetry_equiv_pos_as_xyz 'x,y,z'

loop_
_atom_site_label
_atom_site_type_symbol
_atom_site_fract_x
_atom_site_fract_y
_atom_site_fract_z
_atom_site_charge
Ni       Ni     0.139640000000     0.156850000000     0.089666666667     1.093      
Ni       Ni     0.193440000000     0.134500000000     0.139100000000     1.093      
Ni       Ni     0.076900000000     0.208650000000     0.104566666667     1.094      
Ni       Ni     0.060360000000     0.343150000000     0.243666666667     1.093      
Ni       Ni     0.006560000000     0.365500000000     0.194233333333     1.093      
Ni       Ni     0.123100000000     0.291350000000     0.228766666667     1.094      
H        H      0.128800000000     0.271000000000     0.156666666667     0.053      
H        H      0.022800000000     0.235000000000     0.329333333333     0.053      
H        H      0.020400000000     0.494000000000     0.180666666667     0.052      
H        H      0.071200000000     0.229000000000     0.176666666667     0.053      
H        H      0.177200000000     0.265000000000     0.004000000000     0.053      
H        H      0.179600000000     0.006000000000     0.152666666667     0.052      
C        C      0.150360000000     0.215550000000     0.127900000000     0.425      
C        C      0.178860000000     0.231100000000     0.148766666667    -0.19       
C        C      0.013980000000     0.219300000000     0.154300000000     0.171      
C        C      0.165860000000     0.264050000000     0.158733333333    -0.029      
C        C      0.027100000000     0.191850000000     0.061733333333     0.426      
C        C      0.068120000000     0.223150000000     0.030500000000    -0.19       
C        C      0.106560000000     0.231450000000     0.032833333333     0.171      
C        C      0.061100000000     0.238100000000     0.331900000000    -0.029      
C        C      0.064140000000     0.092600000000     0.143700000000     0.425      
C        C      0.086420000000     0.045750000000     0.154066666667    -0.189      
C        C      0.126260000000     0.049250000000     0.146200000000     0.171      
C        C      0.060240000000     0.497850000000     0.176033333333    -0.029      
C        C      0.049640000000     0.284450000000     0.205433333333     0.425      
C        C      0.021140000000     0.268900000000     0.184566666667    -0.19       
C        C      0.186020000000     0.280700000000     0.179033333333     0.171      
C        C      0.034140000000     0.235950000000     0.174600000000    -0.029      
C        C      0.172900000000     0.308150000000     0.271600000000     0.426      
C        C      0.131880000000     0.276850000000     0.302833333333    -0.19       
C        C      0.093440000000     0.268550000000     0.300500000000     0.171      
C        C      0.138900000000     0.261900000000     0.001433333333    -0.029      
C        C      0.135860000000     0.407400000000     0.189633333333     0.425      
C        C      0.113580000000     0.454250000000     0.179266666667    -0.189      
C        C      0.073740000000     0.450750000000     0.187133333333     0.171      
C        C      0.139760000000     0.002150000000     0.157300000000    -0.029      
O        O      0.118860000000     0.237150000000     0.123800000000    -0.435      
O        O      0.161500000000     0.189300000000     0.117700000000    -0.599      
O        O      0.029440000000     0.184650000000     0.146900000000    -0.49       
O        O      0.193140000000     0.185700000000     0.051433333333    -0.435      
O        O      0.032120000000     0.176550000000     0.089433333333    -0.599      
O        O      0.117580000000     0.220350000000     0.063333333333    -0.49       
O        O      0.024000000000     0.077150000000     0.158100000000    -0.434      
O        O      0.085780000000     0.134150000000     0.126200000000    -0.599      
O        O      0.155580000000     0.095000000000     0.123100000000    -0.49       
O        O      0.081140000000     0.262850000000     0.209533333333    -0.435      
O        O      0.038500000000     0.310700000000     0.215633333333    -0.599      
O        O      0.170560000000     0.315350000000     0.186433333333    -0.49       
O        O      0.006860000000     0.314300000000     0.281900000000    -0.435      
O        O      0.167880000000     0.323450000000     0.243900000000    -0.599      
O        O      0.082420000000     0.279650000000     0.270000000000    -0.49       
O        O      0.176000000000     0.422850000000     0.175233333333    -0.434      
O        O      0.114220000000     0.365850000000     0.207133333333    -0.599      
O        O      0.044420000000     0.405000000000     0.210233333333    -0.49       
Ni       Ni     0.139640000000     0.156850000000     0.423000000000     1.093      
Ni       Ni     0.193440000000     0.134500000000     0.472433333333     1.093      
Ni       Ni     0.076900000000     0.208650000000     0.437900000000     1.094      
Ni       Ni     0.060360000000     0.343150000000     0.577000000000     1.093      
Ni       Ni     0.006560000000     0.365500000000     0.527566666667     1.093      
Ni       Ni     0.123100000000     0.291350000000     0.562100000000     1.094      
H        H      0.128800000000     0.271000000000     0.490000000000     0.053      
H        H      0.022800000000     0.235000000000     0.662666666667     0.053      
H        H      0.020400000000     0.494000000000     0.514000000000     0.052      
H        H      0.071200000000     0.229000000000     0.510000000000     0.053      
H        H      0.177200000000     0.265000000000     0.337333333333     0.053      
H        H      0.179600000000     0.006000000000     0.486000000000     0.052      
C        C      0.150360000000     0.215550000000     0.461233333333     0.425      
C        C      0.178860000000     0.231100000000     0.482100000000    -0.19       
C        C      0.013980000000     0.219300000000     0.487633333333     0.171      
C        C      0.165860000000     0.264050000000     0.492066666667    -0.029      
C        C      0.027100000000     0.191850000000     0.395066666667     0.426      
C        C      0.068120000000     0.223150000000     0.363833333333    -0.19       
C        C      0.106560000000     0.231450000000     0.366166666667     0.171      
C        C      0.061100000000     0.238100000000     0.665233333333    -0.029      
C        C      0.064140000000     0.092600000000     0.477033333333     0.425      
C        C      0.086420000000     0.045750000000     0.487400000000    -0.189      
C        C      0.126260000000     0.049250000000     0.479533333333     0.171      
C        C      0.060240000000     0.497850000000     0.509366666667    -0.029      
C        C      0.049640000000     0.284450000000     0.538766666667     0.425      
C        C      0.021140000000     0.268900000000     0.517900000000    -0.19       
C        C      0.186020000000     0.280700000000     0.512366666667     0.171      
C        C      0.034140000000     0.235950000000     0.507933333333    -0.029      
C        C      0.172900000000     0.308150000000     0.604933333333     0.426      
C        C      0.131880000000     0.276850000000     0.636166666667    -0.19       
C        C      0.093440000000     0.268550000000     0.633833333333     0.171      
C        C      0.138900000000     0.261900000000     0.334766666667    -0.029      
C        C      0.135860000000     0.407400000000     0.522966666667     0.425      
C        C      0.113580000000     0.454250000000     0.512600000000    -0.189      
C        C      0.073740000000     0.450750000000     0.520466666667     0.171      
C        C      0.139760000000     0.002150000000     0.490633333333    -0.029      
O        O      0.118860000000     0.237150000000     0.457133333333    -0.435      
O        O      0.161500000000     0.189300000000     0.451033333333    -0.599      
O        O      0.029440000000     0.184650000000     0.480233333333    -0.49       
O        O      0.193140000000     0.185700000000     0.384766666667    -0.435      
O        O      0.032120000000     0.176550000000     0.422766666667    -0.599      
O        O      0.117580000000     0.220350000000     0.396666666667    -0.49       
O        O      0.024000000000     0.077150000000     0.491433333333    -0.434      
O        O      0.085780000000     0.134150000000     0.459533333333    -0.599      
O        O      0.155580000000     0.095000000000     0.456433333333    -0.49       
O        O      0.081140000000     0.262850000000     0.542866666667    -0.435      
O        O      0.038500000000     0.310700000000     0.548966666667    -0.599      
O        O      0.170560000000     0.315350000000     0.519766666667    -0.49       
O        O      0.006860000000     0.314300000000     0.615233333333    -0.435      
O        O      0.167880000000     0.323450000000     0.577233333333    -0.599      
O        O      0.082420000000     0.279650000000     0.603333333333    -0.49       
O        O      0.176000000000     0.422850000000     0.508566666667    -0.434      
O        O      0.114220000000     0.365850000000     0.540466666667    -0.599      
O        O      0.044420000000     0.405000000000     0.543566666667    -0.49       
Ni       Ni     0.139640000000     0.156850000000     0.756333333333     1.093      
Ni       Ni     0.193440000000     0.134500000000     0.805766666667     1.093      
Ni       Ni     0.076900000000     0.208650000000     0.771233333333     1.094      
Ni       Ni     0.060360000000     0.343150000000     0.910333333333     1.093      
Ni       Ni     0.006560000000     0.365500000000     0.860900000000     1.093      
Ni       Ni     0.123100000000     0.291350000000     0.895433333333     1.094      
H        H      0.128800000000     0.271000000000     0.823333333333     0.053      
H        H      0.022800000000     0.235000000000     0.996000000000     0.053      
H        H      0.020400000000     0.494000000000     0.847333333333     0.052      
H        H      0.071200000000     0.229000000000     0.843333333333     0.053      
H        H      0.177200000000     0.265000000000     0.670666666667     0.053      
H        H      0.179600000000     0.006000000000     0.819333333333     0.052      
C        C      0.150360000000     0.215550000000     0.794566666667     0.425      
C        C      0.178860000000     0.231100000000     0.815433333333    -0.19       
C        C      0.013980000000     0.219300000000     0.820966666667     0.171      
C        C      0.165860000000     0.264050000000     0.825400000000    -0.029      
C        C      0.027100000000     0.191850000000     0.728400000000     0.426      
C        C      0.068120000000     0.223150000000     0.697166666667    -0.19       
C        C      0.106560000000     0.231450000000     0.699500000000     0.171      
C        C      0.061100000000     0.238100000000     0.998566666667    -0.029      
C        C      0.064140000000     0.092600000000     0.810366666667     0.425      
C        C      0.086420000000     0.045750000000     0.820733333333    -0.189      
C        C      0.126260000000     0.049250000000     0.812866666667     0.171      
C        C      0.060240000000     0.497850000000     0.842700000000    -0.029      
C        C      0.049640000000     0.284450000000     0.872100000000     0.425      
C        C      0.021140000000     0.268900000000     0.851233333333    -0.19       
C        C      0.186020000000     0.280700000000     0.845700000000     0.171      
C        C      0.034140000000     0.235950000000     0.841266666667    -0.029      
C        C      0.172900000000     0.308150000000     0.938266666667     0.426      
C        C      0.131880000000     0.276850000000     0.969500000000    -0.19       
C        C      0.093440000000     0.268550000000     0.967166666667     0.171      
C        C      0.138900000000     0.261900000000     0.668100000000    -0.029      
C        C      0.135860000000     0.407400000000     0.856300000000     0.425      
C        C      0.113580000000     0.454250000000     0.845933333333    -0.189      
C        C      0.073740000000     0.450750000000     0.853800000000     0.171      
C        C      0.139760000000     0.002150000000     0.823966666667    -0.029      
O        O      0.118860000000     0.237150000000     0.790466666667    -0.435      
O        O      0.161500000000     0.189300000000     0.784366666667    -0.599      
O        O      0.029440000000     0.184650000000     0.813566666667    -0.49       
O        O      0.193140000000     0.185700000000     0.718100000000    -0.435      
O        O      0.032120000000     0.176550000000     0.756100000000    -0.599      
O        O      0.117580000000     0.220350000000     0.730000000000    -0.49       
O        O      0.024000000000     0.077150000000     0.824766666667    -0.434      
O        O      0.085780000000     0.134150000000     0.792866666667    -0.599      
O        O      0.155580000000     0.095000000000     0.789766666667    -0.49       
O        O      0.081140000000     0.262850000000     0.876200000000    -0.435      
O        O      0.038500000000     0.310700000000     0.882300000000    -0.599      
O        O      0.170560000000     0.315350000000     0.853100000000    -0.49       
O        O      0.006860000000     0.314300000000     0.948566666667    -0.435      
O        O      0.167880000000     0.323450000000     0.910566666667    -0.599      
O        O      0.082420000000     0.279650000000     0.936666666667    -0.49       
O        O      0.176000000000     0.422850000000     0.841900000000    -0.434      
O        O      0.114220000000     0.365850000000     0.873800000000    -0.599      
O        O      0.044420000000     0.405000000000     0.876900000000    -0.49       
Ni       Ni     0.139640000000     0.656850000000     0.089666666667     1.093      
Ni       Ni     0.193440000000     0.634500000000     0.139100000000     1.093      
Ni       Ni     0.076900000000     0.708650000000     0.104566666667     1.094      
Ni       Ni     0.060360000000     0.843150000000     0.243666666667     1.093      
Ni       Ni     0.006560000000     0.865500000000     0.194233333333     1.093      
Ni       Ni     0.123100000000     0.791350000000     0.228766666667     1.094      
H        H      0.128800000000     0.771000000000     0.156666666667     0.053      
H        H      0.022800000000     0.735000000000     0.329333333333     0.053      
H        H      0.020400000000     0.994000000000     0.180666666667     0.052      
H        H      0.071200000000     0.729000000000     0.176666666667     0.053      
H        H      0.177200000000     0.765000000000     0.004000000000     0.053      
H        H      0.179600000000     0.506000000000     0.152666666667     0.052      
C        C      0.150360000000     0.715550000000     0.127900000000     0.425      
C        C      0.178860000000     0.731100000000     0.148766666667    -0.19       
C        C      0.013980000000     0.719300000000     0.154300000000     0.171      
C        C      0.165860000000     0.764050000000     0.158733333333    -0.029      
C        C      0.027100000000     0.691850000000     0.061733333333     0.426      
C        C      0.068120000000     0.723150000000     0.030500000000    -0.19       
C        C      0.106560000000     0.731450000000     0.032833333333     0.171      
C        C      0.061100000000     0.738100000000     0.331900000000    -0.029      
C        C      0.064140000000     0.592600000000     0.143700000000     0.425      
C        C      0.086420000000     0.545750000000     0.154066666667    -0.189      
C        C      0.126260000000     0.549250000000     0.146200000000     0.171      
C        C      0.060240000000     0.997850000000     0.176033333333    -0.029      
C        C      0.049640000000     0.784450000000     0.205433333333     0.425      
C        C      0.021140000000     0.768900000000     0.184566666667    -0.19       
C        C      0.186020000000     0.780700000000     0.179033333333     0.171      
C        C      0.034140000000     0.735950000000     0.174600000000    -0.029      
C        C      0.172900000000     0.808150000000     0.271600000000     0.426      
C        C      0.131880000000     0.776850000000     0.302833333333    -0.19       
C        C      0.093440000000     0.768550000000     0.300500000000     0.171      
C        C      0.138900000000     0.761900000000     0.001433333333    -0.029      
C        C      0.135860000000     0.907400000000     0.189633333333     0.425      
C        C      0.113580000000     0.954250000000     0.179266666667    -0.189      
C        C      0.073740000000     0.950750000000     0.187133333333     0.171      
C        C      0.139760000000     0.502150000000     0.157300000000    -0.029      
O        O      0.118860000000     0.737150000000     0.123800000000    -0.435      
O        O      0.161500000000     0.689300000000     0.117700000000    -0.599      
O        O      0.029440000000     0.684650000000     0.146900000000    -0.49       
O        O      0.193140000000     0.685700000000     0.051433333333    -0.435      
O        O      0.032120000000     0.676550000000     0.089433333333    -0.599      
O        O      0.117580000000     0.720350000000     0.063333333333    -0.49       
O        O      0.024000000000     0.577150000000     0.158100000000    -0.434      
O        O      0.085780000000     0.634150000000     0.126200000000    -0.599      
O        O      0.155580000000     0.595000000000     0.123100000000    -0.49       
O        O      0.081140000000     0.762850000000     0.209533333333    -0.435      
O        O      0.038500000000     0.810700000000     0.215633333333    -0.599      
O        O      0.170560000000     0.815350000000     0.186433333333    -0.49       
O        O      0.006860000000     0.814300000000     0.281900000000    -0.435      
O        O      0.167880000000     0.823450000000     0.243900000000    -0.599      
O        O      0.082420000000     0.779650000000     0.270000000000    -0.49       
O        O      0.176000000000     0.922850000000     0.175233333333    -0.434      
O        O      0.114220000000     0.865850000000     0.207133333333    -0.599      
O        O      0.044420000000     0.905000000000     0.210233333333    -0.49       
Ni       Ni     0.139640000000     0.656850000000     0.423000000000     1.093      
Ni       Ni     0.193440000000     0.634500000000     0.472433333333     1.093      
Ni       Ni     0.076900000000     0.708650000000     0.437900000000     1.094      
Ni       Ni     0.060360000000     0.843150000000     0.577000000000     1.093      
Ni       Ni     0.006560000000     0.865500000000     0.527566666667     1.093      
Ni       Ni     0.123100000000     0.791350000000     0.562100000000     1.094      
H        H      0.128800000000     0.771000000000     0.490000000000     0.053      
H        H      0.022800000000     0.735000000000     0.662666666667     0.053      
H        H      0.020400000000     0.994000000000     0.514000000000     0.052      
H        H      0.071200000000     0.729000000000     0.510000000000     0.053      
H        H      0.177200000000     0.765000000000     0.337333333333     0.053      
H        H      0.179600000000     0.506000000000     0.486000000000     0.052      
C        C      0.150360000000     0.715550000000     0.461233333333     0.425      
C        C      0.178860000000     0.731100000000     0.482100000000    -0.19       
C        C      0.013980000000     0.719300000000     0.487633333333     0.171      
C        C      0.165860000000     0.764050000000     0.492066666667    -0.029      
C        C      0.027100000000     0.691850000000     0.395066666667     0.426      
C        C      0.068120000000     0.723150000000     0.363833333333    -0.19       
C        C      0.106560000000     0.731450000000     0.366166666667     0.171      
C        C      0.061100000000     0.738100000000     0.665233333333    -0.029      
C        C      0.064140000000     0.592600000000     0.477033333333     0.425      
C        C      0.086420000000     0.545750000000     0.487400000000    -0.189      
C        C      0.126260000000     0.549250000000     0.479533333333     0.171      
C        C      0.060240000000     0.997850000000     0.509366666667    -0.029      
C        C      0.049640000000     0.784450000000     0.538766666667     0.425      
C        C      0.021140000000     0.768900000000     0.517900000000    -0.19       
C        C      0.186020000000     0.780700000000     0.512366666667     0.171      
C        C      0.034140000000     0.735950000000     0.507933333333    -0.029      
C        C      0.172900000000     0.808150000000     0.604933333333     0.426      
C        C      0.131880000000     0.776850000000     0.636166666667    -0.19       
C        C      0.093440000000     0.768550000000     0.633833333333     0.171      
C        C      0.138900000000     0.761900000000     0.334766666667    -0.029      
C        C      0.135860000000     0.907400000000     0.522966666667     0.425      
C        C      0.113580000000     0.954250000000     0.512600000000    -0.189      
C        C      0.073740000000     0.950750000000     0.520466666667     0.171      
C        C      0.139760000000     0.502150000000     0.490633333333    -0.029      
O        O      0.118860000000     0.737150000000     0.457133333333    -0.435      
O        O      0.161500000000     0.689300000000     0.451033333333    -0.599      
O        O      0.029440000000     0.684650000000     0.480233333333    -0.49       
O        O      0.193140000000     0.685700000000     0.384766666667    -0.435      
O        O      0.032120000000     0.676550000000     0.422766666667    -0.599      
O        O      0.117580000000     0.720350000000     0.396666666667    -0.49       
O        O      0.024000000000     0.577150000000     0.491433333333    -0.434      
O        O      0.085780000000     0.634150000000     0.459533333333    -0.599      
O        O      0.155580000000     0.595000000000     0.456433333333    -0.49       
O        O      0.081140000000     0.762850000000     0.542866666667    -0.435      
O        O      0.038500000000     0.810700000000     0.548966666667    -0.599      
O        O      0.170560000000     0.815350000000     0.519766666667    -0.49       
O        O      0.006860000000     0.814300000000     0.615233333333    -0.435      
O        O      0.167880000000     0.823450000000     0.577233333333    -0.599      
O        O      0.082420000000     0.779650000000     0.603333333333    -0.49       
O        O      0.176000000000     0.922850000000     0.508566666667    -0.434      
O        O      0.114220000000     0.865850000000     0.540466666667    -0.599      
O        O      0.044420000000     0.905000000000     0.543566666667    -0.49       
Ni       Ni     0.139640000000     0.656850000000     0.756333333333     1.093      
Ni       Ni     0.193440000000     0.634500000000     0.805766666667     1.093      
Ni       Ni     0.076900000000     0.708650000000     0.771233333333     1.094      
Ni       Ni     0.060360000000     0.843150000000     0.910333333333     1.093      
Ni       Ni     0.006560000000     0.865500000000     0.860900000000     1.093      
Ni       Ni     0.123100000000     0.791350000000     0.895433333333     1.094      
H        H      0.128800000000     0.771000000000     0.823333333333     0.053      
H        H      0.022800000000     0.735000000000     0.996000000000     0.053      
H        H      0.020400000000     0.994000000000     0.847333333333     0.052      
H        H      0.071200000000     0.729000000000     0.843333333333     0.053      
H        H      0.177200000000     0.765000000000     0.670666666667     0.053      
H        H      0.179600000000     0.506000000000     0.819333333333     0.052      
C        C      0.150360000000     0.715550000000     0.794566666667     0.425      
C        C      0.178860000000     0.731100000000     0.815433333333    -0.19       
C        C      0.013980000000     0.719300000000     0.820966666667     0.171      
C        C      0.165860000000     0.764050000000     0.825400000000    -0.029      
C        C      0.027100000000     0.691850000000     0.728400000000     0.426      
C        C      0.068120000000     0.723150000000     0.697166666667    -0.19       
C        C      0.106560000000     0.731450000000     0.699500000000     0.171      
C        C      0.061100000000     0.738100000000     0.998566666667    -0.029      
C        C      0.064140000000     0.592600000000     0.810366666667     0.425      
C        C      0.086420000000     0.545750000000     0.820733333333    -0.189      
C        C      0.126260000000     0.549250000000     0.812866666667     0.171      
C        C      0.060240000000     0.997850000000     0.842700000000    -0.029      
C        C      0.049640000000     0.784450000000     0.872100000000     0.425      
C        C      0.021140000000     0.768900000000     0.851233333333    -0.19       
C        C      0.186020000000     0.780700000000     0.845700000000     0.171      
C        C      0.034140000000     0.735950000000     0.841266666667    -0.029      
C        C      0.172900000000     0.808150000000     0.938266666667     0.426      
C        C      0.131880000000     0.776850000000     0.969500000000    -0.19       
C        C      0.093440000000     0.768550000000     0.967166666667     0.171      
C        C      0.138900000000     0.761900000000     0.668100000000    -0.029      
C        C      0.135860000000     0.907400000000     0.856300000000     0.425      
C        C      0.113580000000     0.954250000000     0.845933333333    -0.189      
C        C      0.073740000000     0.950750000000     0.853800000000     0.171      
C        C      0.139760000000     0.502150000000     0.823966666667    -0.029      
O        O      0.118860000000     0.737150000000     0.790466666667    -0.435      
O        O      0.161500000000     0.689300000000     0.784366666667    -0.599      
O        O      0.029440000000     0.684650000000     0.813566666667    -0.49       
O        O      0.193140000000     0.685700000000     0.718100000000    -0.435      
O        O      0.032120000000     0.676550000000     0.756100000000    -0.599      
O        O      0.117580000000     0.720350000000     0.730000000000    -0.49       
O        O      0.024000000000     0.577150000000     0.824766666667    -0.434      
O        O      0.085780000000     0.634150000000     0.792866666667    -0.599      
O        O      0.155580000000     0.595000000000     0.789766666667    -0.49       
O        O      0.081140000000     0.762850000000     0.876200000000    -0.435      
O        O      0.038500000000     0.810700000000     0.882300000000    -0.599      
O        O      0.170560000000     0.815350000000     0.853100000000    -0.49       
O        O      0.006860000000     0.814300000000     0.948566666667    -0.435      
O        O      0.167880000000     0.823450000000     0.910566666667    -0.599      
O        O      0.082420000000     0.779650000000     0.936666666667    -0.49       
O        O      0.176000000000     0.922850000000     0.841900000000    -0.434      
O        O      0.114220000000     0.865850000000     0.873800000000    -0.599      
O        O      0.044420000000     0.905000000000     0.876900000000    -0.49       
Ni       Ni     0.339640000000     0.156850000000     0.089666666667     1.093      
Ni       Ni     0.393440000000     0.134500000000     0.139100000000     1.093      
Ni       Ni     0.276900000000     0.208650000000     0.104566666667     1.094      
Ni       Ni     0.260360000000     0.343150000000     0.243666666667     1.093      
Ni       Ni     0.206560000000     0.365500000000     0.194233333333     1.093      
Ni       Ni     0.323100000000     0.291350000000     0.228766666667     1.094      
H        H      0.328800000000     0.271000000000     0.156666666667     0.053      
H        H      0.222800000000     0.235000000000     0.329333333333     0.053      
H        H      0.220400000000     0.494000000000     0.180666666667     0.052      
H        H      0.271200000000     0.229000000000     0.176666666667     0.053      
H        H      0.377200000000     0.265000000000     0.004000000000     0.053      
H        H      0.379600000000     0.006000000000     0.152666666667     0.052      
C        C      0.350360000000     0.215550000000     0.127900000000     0.425      
C        C      0.378860000000     0.231100000000     0.148766666667    -0.19       
C        C      0.213980000000     0.219300000000     0.154300000000     0.171      
C        C      0.365860000000     0.264050000000     0.158733333333    -0.029      
C        C      0.227100000000     0.191850000000     0.061733333333     0.426      
C        C      0.268120000000     0.223150000000     0.030500000000    -0.19       
C        C      0.306560000000     0.231450000000     0.032833333333     0.171      
C        C      0.261100000000     0.238100000000     0.331900000000    -0.029      
C        C      0.264140000000     0.092600000000     0.143700000000     0.425      
C        C      0.286420000000     0.045750000000     0.154066666667    -0.189      
C        C      0.326260000000     0.049250000000     0.146200000000     0.171      
C        C      0.260240000000     0.497850000000     0.176033333333    -0.029      
C        C      0.249640000000     0.284450000000     0.205433333333     0.425      
C        C      0.221140000000     0.268900000000     0.184566666667    -0.19       
C        C      0.386020000000     0.280700000000     0.179033333333     0.171      
C        C      0.234140000000     0.235950000000     0.174600000000    -0.029      
C        C      0.372900000000     0.308150000000     0.271600000000     0.426      
C        C      0.331880000000     0.276850000000     0.302833333333    -0.19       
C        C      0.293440000000     0.268550000000     0.300500000000     0.171      
C        C      0.338900000000     0.261900000000     0.001433333333    -0.029      
C        C      0.335860000000     0.407400000000     0.189633333333     0.425      
C        C      0.313580000000     0.454250000000     0.179266666667    -0.189      
C        C      0.273740000000     0.450750000000     0.187133333333     0.171      
C        C      0.339760000000     0.002150000000     0.157300000000    -0.029      
O        O      0.318860000000     0.237150000000     0.123800000000    -0.435      
O        O      0.361500000000     0.189300000000     0.117700000000    -0.599      
O        O      0.229440000000     0.184650000000     0.146900000000    -0.49       
O        O      0.393140000000     0.185700000000     0.051433333333    -0.435      
O        O      0.232120000000     0.176550000000     0.089433333333    -0.599      
O        O      0.317580000000     0.220350000000     0.063333333333    -0.49       
O        O      0.224000000000     0.077150000000     0.158100000000    -0.434      
O        O      0.285780000000     0.134150000000     0.126200000000    -0.599      
O        O      0.355580000000     0.095000000000     0.123100000000    -0.49       
O        O      0.281140000000     0.262850000000     0.209533333333    -0.435      
O        O      0.238500000000     0.310700000000     0.215633333333    -0.599      
O        O      0.370560000000     0.315350000000     0.186433333333    -0.49       
O        O      0.206860000000     0.314300000000     0.281900000000    -0.435      
O        O      0.367880000000     0.323450000000     0.243900000000    -0.599      
O        O      0.282420000000     0.279650000000     0.270000000000    -0.49       
O        O      0.376000000000     0.422850000000     0.175233333333    -0.434      
O        O      0.314220000000     0.365850000000     0.207133333333    -0.599      
O        O      0.244420000000     0.405000000000     0.210233333333    -0.49       
Ni       Ni     0.339640000000     0.156850000000     0.423000000000     1.093      
Ni       Ni     0.393440000000     0.134500000000     0.472433333333     1.093      
Ni       Ni     0.276900000000     0.208650000000     0.437900000000     1.094      
Ni       Ni     0.260360000000     0.343150000000     0.577000000000     1.093      
Ni       Ni     0.206560000000     0.365500000000     0.527566666667     1.093      
Ni       Ni     0.323100000000     0.291350000000     0.562100000000     1.094      
H        H      0.328800000000     0.271000000000     0.490000000000     0.053      
H        H      0.222800000000     0.235000000000     0.662666666667     0.053      
H        H      0.220400000000     0.494000000000     0.514000000000     0.052      
H        H      0.271200000000     0.229000000000     0.510000000000     0.053      
H        H      0.377200000000     0.265000000000     0.337333333333     0.053      
H        H      0.379600000000     0.006000000000     0.486000000000     0.052      
C        C      0.350360000000     0.215550000000     0.461233333333     0.425      
C        C      0.378860000000     0.231100000000     0.482100000000    -0.19       
C        C      0.213980000000     0.219300000000     0.487633333333     0.171      
C        C      0.365860000000     0.264050000000     0.492066666667    -0.029      
C        C      0.227100000000     0.191850000000     0.395066666667     0.426      
C        C      0.268120000000     0.223150000000     0.363833333333    -0.19       
C        C      0.306560000000     0.231450000000     0.366166666667     0.171      
C        C      0.261100000000     0.238100000000     0.665233333333    -0.029      
C        C      0.264140000000     0.092600000000     0.477033333333     0.425      
C        C      0.286420000000     0.045750000000     0.487400000000    -0.189      
C        C      0.326260000000     0.049250000000     0.479533333333     0.171      
C        C      0.260240000000     0.497850000000     0.509366666667    -0.029      
C        C      0.249640000000     0.284450000000     0.538766666667     0.425      
C        C      0.221140000000     0.268900000000     0.517900000000    -0.19       
C        C      0.386020000000     0.280700000000     0.512366666667     0.171      
C        C      0.234140000000     0.235950000000     0.507933333333    -0.029      
C        C      0.372900000000     0.308150000000     0.604933333333     0.426      
C        C      0.331880000000     0.276850000000     0.636166666667    -0.19       
C        C      0.293440000000     0.268550000000     0.633833333333     0.171      
C        C      0.338900000000     0.261900000000     0.334766666667    -0.029      
C        C      0.335860000000     0.407400000000     0.522966666667     0.425      
C        C      0.313580000000     0.454250000000     0.512600000000    -0.189      
C        C      0.273740000000     0.450750000000     0.520466666667     0.171      
C        C      0.339760000000     0.002150000000     0.490633333333    -0.029      
O        O      0.318860000000     0.237150000000     0.457133333333    -0.435      
O        O      0.361500000000     0.189300000000     0.451033333333    -0.599      
O        O      0.229440000000     0.184650000000     0.480233333333    -0.49       
O        O      0.393140000000     0.185700000000     0.384766666667    -0.435      
O        O      0.232120000000     0.176550000000     0.422766666667    -0.599      
O        O      0.317580000000     0.220350000000     0.396666666667    -0.49       
O        O      0.224000000000     0.077150000000     0.491433333333    -0.434      
O        O      0.285780000000     0.134150000000     0.459533333333    -0.599      
O        O      0.355580000000     0.095000000000     0.456433333333    -0.49       
O        O      0.281140000000     0.262850000000     0.542866666667    -0.435      
O        O      0.238500000000     0.310700000000     0.548966666667    -0.599      
O        O      0.370560000000     0.315350000000     0.519766666667    -0.49       
O        O      0.206860000000     0.314300000000     0.615233333333    -0.435      
O        O      0.367880000000     0.323450000000     0.577233333333    -0.599      
O        O      0.282420000000     0.279650000000     0.603333333333    -0.49       
O        O      0.376000000000     0.422850000000     0.508566666667    -0.434      
O        O      0.314220000000     0.365850000000     0.540466666667    -0.599      
O        O      0.244420000000     0.405000000000     0.543566666667    -0.49       
Ni       Ni     0.339640000000     0.156850000000     0.756333333333     1.093      
Ni       Ni     0.393440000000     0.134500000000     0.805766666667     1.093      
Ni       Ni     0.276900000000     0.208650000000     0.771233333333     1.094      
Ni       Ni     0.260360000000     0.343150000000     0.910333333333     1.093      
Ni       Ni     0.206560000000     0.365500000000     0.860900000000     1.093      
Ni       Ni     0.323100000000     0.291350000000     0.895433333333     1.094      
H        H      0.328800000000     0.271000000000     0.823333333333     0.053      
H        H      0.222800000000     0.235000000000     0.996000000000     0.053      
H        H      0.220400000000     0.494000000000     0.847333333333     0.052      
H        H      0.271200000000     0.229000000000     0.843333333333     0.053      
H        H      0.377200000000     0.265000000000     0.670666666667     0.053      
H        H      0.379600000000     0.006000000000     0.819333333333     0.052      
C        C      0.350360000000     0.215550000000     0.794566666667     0.425      
C        C      0.378860000000     0.231100000000     0.815433333333    -0.19       
C        C      0.213980000000     0.219300000000     0.820966666667     0.171      
C        C      0.365860000000     0.264050000000     0.825400000000    -0.029      
C        C      0.227100000000     0.191850000000     0.728400000000     0.426      
C        C      0.268120000000     0.223150000000     0.697166666667    -0.19       
C        C      0.306560000000     0.231450000000     0.699500000000     0.171      
C        C      0.261100000000     0.238100000000     0.998566666667    -0.029      
C        C      0.264140000000     0.092600000000     0.810366666667     0.425      
C        C      0.286420000000     0.045750000000     0.820733333333    -0.189      
C        C      0.326260000000     0.049250000000     0.812866666667     0.171      
C        C      0.260240000000     0.497850000000     0.842700000000    -0.029      
C        C      0.249640000000     0.284450000000     0.872100000000     0.425      
C        C      0.221140000000     0.268900000000     0.851233333333    -0.19       
C        C      0.386020000000     0.280700000000     0.845700000000     0.171      
C        C      0.234140000000     0.235950000000     0.841266666667    -0.029      
C        C      0.372900000000     0.308150000000     0.938266666667     0.426      
C        C      0.331880000000     0.276850000000     0.969500000000    -0.19       
C        C      0.293440000000     0.268550000000     0.967166666667     0.171      
C        C      0.338900000000     0.261900000000     0.668100000000    -0.029      
C        C      0.335860000000     0.407400000000     0.856300000000     0.425      
C        C      0.313580000000     0.454250000000     0.845933333333    -0.189      
C        C      0.273740000000     0.450750000000     0.853800000000     0.171      
C        C      0.339760000000     0.002150000000     0.823966666667    -0.029      
O        O      0.318860000000     0.237150000000     0.790466666667    -0.435      
O        O      0.361500000000     0.189300000000     0.784366666667    -0.599      
O        O      0.229440000000     0.184650000000     0.813566666667    -0.49       
O        O      0.393140000000     0.185700000000     0.718100000000    -0.435      
O        O      0.232120000000     0.176550000000     0.756100000000    -0.599      
O        O      0.317580000000     0.220350000000     0.730000000000    -0.49       
O        O      0.224000000000     0.077150000000     0.824766666667    -0.434      
O        O      0.285780000000     0.134150000000     0.792866666667    -0.599      
O        O      0.355580000000     0.095000000000     0.789766666667    -0.49       
O        O      0.281140000000     0.262850000000     0.876200000000    -0.435      
O        O      0.238500000000     0.310700000000     0.882300000000    -0.599      
O        O      0.370560000000     0.315350000000     0.853100000000    -0.49       
O        O      0.206860000000     0.314300000000     0.948566666667    -0.435      
O        O      0.367880000000     0.323450000000     0.910566666667    -0.599      
O        O      0.282420000000     0.279650000000     0.936666666667    -0.49       
O        O      0.376000000000     0.422850000000     0.841900000000    -0.434      
O        O      0.314220000000     0.365850000000     0.873800000000    -0.599      
O        O      0.244420000000     0.405000000000     0.876900000000    -0.49       
Ni       Ni     0.339640000000     0.656850000000     0.089666666667     1.093      
Ni       Ni     0.393440000000     0.634500000000     0.139100000000     1.093      
Ni       Ni     0.276900000000     0.708650000000     0.104566666667     1.094      
Ni       Ni     0.260360000000     0.843150000000     0.243666666667     1.093      
Ni       Ni     0.206560000000     0.865500000000     0.194233333333     1.093      
Ni       Ni     0.323100000000     0.791350000000     0.228766666667     1.094      
H        H      0.328800000000     0.771000000000     0.156666666667     0.053      
H        H      0.222800000000     0.735000000000     0.329333333333     0.053      
H        H      0.220400000000     0.994000000000     0.180666666667     0.052      
H        H      0.271200000000     0.729000000000     0.176666666667     0.053      
H        H      0.377200000000     0.765000000000     0.004000000000     0.053      
H        H      0.379600000000     0.506000000000     0.152666666667     0.052      
C        C      0.350360000000     0.715550000000     0.127900000000     0.425      
C        C      0.378860000000     0.731100000000     0.148766666667    -0.19       
C        C      0.213980000000     0.719300000000     0.154300000000     0.171      
C        C      0.365860000000     0.764050000000     0.158733333333    -0.029      
C        C      0.227100000000     0.691850000000     0.061733333333     0.426      
C        C      0.268120000000     0.723150000000     0.030500000000    -0.19       
C        C      0.306560000000     0.731450000000     0.032833333333     0.171      
C        C      0.261100000000     0.738100000000     0.331900000000    -0.029      
C        C      0.264140000000     0.592600000000     0.143700000000     0.425      
C        C      0.286420000000     0.545750000000     0.154066666667    -0.189      
C        C      0.326260000000     0.549250000000     0.146200000000     0.171      
C        C      0.260240000000     0.997850000000     0.176033333333    -0.029      
C        C      0.249640000000     0.784450000000     0.205433333333     0.425      
C        C      0.221140000000     0.768900000000     0.184566666667    -0.19       
C        C      0.386020000000     0.780700000000     0.179033333333     0.171      
C        C      0.234140000000     0.735950000000     0.174600000000    -0.029      
C        C      0.372900000000     0.808150000000     0.271600000000     0.426      
C        C      0.331880000000     0.776850000000     0.302833333333    -0.19       
C        C      0.293440000000     0.768550000000     0.300500000000     0.171      
C        C      0.338900000000     0.761900000000     0.001433333333    -0.029      
C        C      0.335860000000     0.907400000000     0.189633333333     0.425      
C        C      0.313580000000     0.954250000000     0.179266666667    -0.189      
C        C      0.273740000000     0.950750000000     0.187133333333     0.171      
C        C      0.339760000000     0.502150000000     0.157300000000    -0.029      
O        O      0.318860000000     0.737150000000     0.123800000000    -0.435      
O        O      0.361500000000     0.689300000000     0.117700000000    -0.599      
O        O      0.229440000000     0.684650000000     0.146900000000    -0.49       
O        O      0.393140000000     0.685700000000     0.051433333333    -0.435      
O        O      0.232120000000     0.676550000000     0.089433333333    -0.599      
O        O      0.317580000000     0.720350000000     0.063333333333    -0.49       
O        O      0.224000000000     0.577150000000     0.158100000000    -0.434      
O        O      0.285780000000     0.634150000000     0.126200000000    -0.599      
O        O      0.355580000000     0.595000000000     0.123100000000    -0.49       
O        O      0.281140000000     0.762850000000     0.209533333333    -0.435      
O        O      0.238500000000     0.810700000000     0.215633333333    -0.599      
O        O      0.370560000000     0.815350000000     0.186433333333    -0.49       
O        O      0.206860000000     0.814300000000     0.281900000000    -0.435      
O        O      0.367880000000     0.823450000000     0.243900000000    -0.599      
O        O      0.282420000000     0.779650000000     0.270000000000    -0.49       
O        O      0.376000000000     0.922850000000     0.175233333333    -0.434      
O        O      0.314220000000     0.865850000000     0.207133333333    -0.599      
O        O      0.244420000000     0.905000000000     0.210233333333    -0.49       
Ni       Ni     0.339640000000     0.656850000000     0.423000000000     1.093      
Ni       Ni     0.393440000000     0.634500000000     0.472433333333     1.093      
Ni       Ni     0.276900000000     0.708650000000     0.437900000000     1.094      
Ni       Ni     0.260360000000     0.843150000000     0.577000000000     1.093      
Ni       Ni     0.206560000000     0.865500000000     0.527566666667     1.093      
Ni       Ni     0.323100000000     0.791350000000     0.562100000000     1.094      
H        H      0.328800000000     0.771000000000     0.490000000000     0.053      
H        H      0.222800000000     0.735000000000     0.662666666667     0.053      
H        H      0.220400000000     0.994000000000     0.514000000000     0.052      
H        H      0.271200000000     0.729000000000     0.510000000000     0.053      
H        H      0.377200000000     0.765000000000     0.337333333333     0.053      
H        H      0.379600000000     0.506000000000     0.486000000000     0.052      
C        C      0.350360000000     0.715550000000     0.461233333333     0.425      
C        C      0.378860000000     0.731100000000     0.482100000000    -0.19       
C        C      0.213980000000     0.719300000000     0.487633333333     0.171      
C        C      0.365860000000     0.764050000000     0.492066666667    -0.029      
C        C      0.227100000000     0.691850000000     0.395066666667     0.426      
C        C      0.268120000000     0.723150000000     0.363833333333    -0.19       
C        C      0.306560000000     0.731450000000     0.366166666667     0.171      
C        C      0.261100000000     0.738100000000     0.665233333333    -0.029      
C        C      0.264140000000     0.592600000000     0.477033333333     0.425      
C        C      0.286420000000     0.545750000000     0.487400000000    -0.189      
C        C      0.326260000000     0.549250000000     0.479533333333     0.171      
C        C      0.260240000000     0.997850000000     0.509366666667    -0.029      
C        C      0.249640000000     0.784450000000     0.538766666667     0.425      
C        C      0.221140000000     0.768900000000     0.517900000000    -0.19       
C        C      0.386020000000     0.780700000000     0.512366666667     0.171      
C        C      0.234140000000     0.735950000000     0.507933333333    -0.029      
C        C      0.372900000000     0.808150000000     0.604933333333     0.426      
C        C      0.331880000000     0.776850000000     0.636166666667    -0.19       
C        C      0.293440000000     0.768550000000     0.633833333333     0.171      
C        C      0.338900000000     0.761900000000     0.334766666667    -0.029      
C        C      0.335860000000     0.907400000000     0.522966666667     0.425      
C        C      0.313580000000     0.954250000000     0.512600000000    -0.189      
C        C      0.273740000000     0.950750000000     0.520466666667     0.171      
C        C      0.339760000000     0.502150000000     0.490633333333    -0.029      
O        O      0.318860000000     0.737150000000     0.457133333333    -0.435      
O        O      0.361500000000     0.689300000000     0.451033333333    -0.599      
O        O      0.229440000000     0.684650000000     0.480233333333    -0.49       
O        O      0.393140000000     0.685700000000     0.384766666667    -0.435      
O        O      0.232120000000     0.676550000000     0.422766666667    -0.599      
O        O      0.317580000000     0.720350000000     0.396666666667    -0.49       
O        O      0.224000000000     0.577150000000     0.491433333333    -0.434      
O        O      0.285780000000     0.634150000000     0.459533333333    -0.599      
O        O      0.355580000000     0.595000000000     0.456433333333    -0.49       
O        O      0.281140000000     0.762850000000     0.542866666667    -0.435      
O        O      0.238500000000     0.810700000000     0.548966666667    -0.599      
O        O      0.370560000000     0.815350000000     0.519766666667    -0.49       
O        O      0.206860000000     0.814300000000     0.615233333333    -0.435      
O        O      0.367880000000     0.823450000000     0.577233333333    -0.599      
O        O      0.282420000000     0.779650000000     0.603333333333    -0.49       
O        O      0.376000000000     0.922850000000     0.508566666667    -0.434      
O        O      0.314220000000     0.865850000000     0.540466666667    -0.599      
O        O      0.244420000000     0.905000000000     0.543566666667    -0.49       
Ni       Ni     0.339640000000     0.656850000000     0.756333333333     1.093      
Ni       Ni     0.393440000000     0.634500000000     0.805766666667     1.093      
Ni       Ni     0.276900000000     0.708650000000     0.771233333333     1.094      
Ni       Ni     0.260360000000     0.843150000000     0.910333333333     1.093      
Ni       Ni     0.206560000000     0.865500000000     0.860900000000     1.093      
Ni       Ni     0.323100000000     0.791350000000     0.895433333333     1.094      
H        H      0.328800000000     0.771000000000     0.823333333333     0.053      
H        H      0.222800000000     0.735000000000     0.996000000000     0.053      
H        H      0.220400000000     0.994000000000     0.847333333333     0.052      
H        H      0.271200000000     0.729000000000     0.843333333333     0.053      
H        H      0.377200000000     0.765000000000     0.670666666667     0.053      
H        H      0.379600000000     0.506000000000     0.819333333333     0.052      
C        C      0.350360000000     0.715550000000     0.794566666667     0.425      
C        C      0.378860000000     0.731100000000     0.815433333333    -0.19       
C        C      0.213980000000     0.719300000000     0.820966666667     0.171      
C        C      0.365860000000     0.764050000000     0.825400000000    -0.029      
C        C      0.227100000000     0.691850000000     0.728400000000     0.426      
C        C      0.268120000000     0.723150000000     0.697166666667    -0.19       
C        C      0.306560000000     0.731450000000     0.699500000000     0.171      
C        C      0.261100000000     0.738100000000     0.998566666667    -0.029      
C        C      0.264140000000     0.592600000000     0.810366666667     0.425      
C        C      0.286420000000     0.545750000000     0.820733333333    -0.189      
C        C      0.326260000000     0.549250000000     0.812866666667     0.171      
C        C      0.260240000000     0.997850000000     0.842700000000    -0.029      
C        C      0.249640000000     0.784450000000     0.872100000000     0.425      
C        C      0.221140000000     0.768900000000     0.851233333333    -0.19       
C        C      0.386020000000     0.780700000000     0.845700000000     0.171      
C        C      0.234140000000     0.735950000000     0.841266666667    -0.029      
C        C      0.372900000000     0.808150000000     0.938266666667     0.426      
C        C      0.331880000000     0.776850000000     0.969500000000    -0.19       
C        C      0.293440000000     0.768550000000     0.967166666667     0.171      
C        C      0.338900000000     0.761900000000     0.668100000000    -0.029      
C        C      0.335860000000     0.907400000000     0.856300000000     0.425      
C        C      0.313580000000     0.954250000000     0.845933333333    -0.189      
C        C      0.273740000000     0.950750000000     0.853800000000     0.171      
C        C      0.339760000000     0.502150000000     0.823966666667    -0.029      
O        O      0.318860000000     0.737150000000     0.790466666667    -0.435      
O        O      0.361500000000     0.689300000000     0.784366666667    -0.599      
O        O      0.229440000000     0.684650000000     0.813566666667    -0.49       
O        O      0.393140000000     0.685700000000     0.718100000000    -0.435      
O        O      0.232120000000     0.676550000000     0.756100000000    -0.599      
O        O      0.317580000000     0.720350000000     0.730000000000    -0.49       
O        O      0.224000000000     0.577150000000     0.824766666667    -0.434      
O        O      0.285780000000     0.634150000000     0.792866666667    -0.599      
O        O      0.355580000000     0.595000000000     0.789766666667    -0.49       
O        O      0.281140000000     0.762850000000     0.876200000000    -0.435      
O        O      0.238500000000     0.810700000000     0.882300000000    -0.599      
O        O      0.370560000000     0.815350000000     0.853100000000    -0.49       
O        O      0.206860000000     0.814300000000     0.948566666667    -0.435      
O        O      0.367880000000     0.823450000000     0.910566666667    -0.599      
O        O      0.282420000000     0.779650000000     0.936666666667    -0.49       
O        O      0.376000000000     0.922850000000     0.841900000000    -0.434      
O        O      0.314220000000     0.865850000000     0.873800000000    -0.599      
O        O      0.244420000000     0.905000000000     0.876900000000    -0.49       
Ni       Ni     0.539640000000     0.156850000000     0.089666666667     1.093      
Ni       Ni     0.593440000000     0.134500000000     0.139100000000     1.093      
Ni       Ni     0.476900000000     0.208650000000     0.104566666667     1.094      
Ni       Ni     0.460360000000     0.343150000000     0.243666666667     1.093      
Ni       Ni     0.406560000000     0.365500000000     0.194233333333     1.093      
Ni       Ni     0.523100000000     0.291350000000     0.228766666667     1.094      
H        H      0.528800000000     0.271000000000     0.156666666667     0.053      
H        H      0.422800000000     0.235000000000     0.329333333333     0.053      
H        H      0.420400000000     0.494000000000     0.180666666667     0.052      
H        H      0.471200000000     0.229000000000     0.176666666667     0.053      
H        H      0.577200000000     0.265000000000     0.004000000000     0.053      
H        H      0.579600000000     0.006000000000     0.152666666667     0.052      
C        C      0.550360000000     0.215550000000     0.127900000000     0.425      
C        C      0.578860000000     0.231100000000     0.148766666667    -0.19       
C        C      0.413980000000     0.219300000000     0.154300000000     0.171      
C        C      0.565860000000     0.264050000000     0.158733333333    -0.029      
C        C      0.427100000000     0.191850000000     0.061733333333     0.426      
C        C      0.468120000000     0.223150000000     0.030500000000    -0.19       
C        C      0.506560000000     0.231450000000     0.032833333333     0.171      
C        C      0.461100000000     0.238100000000     0.331900000000    -0.029      
C        C      0.464140000000     0.092600000000     0.143700000000     0.425      
C        C      0.486420000000     0.045750000000     0.154066666667    -0.189      
C        C      0.526260000000     0.049250000000     0.146200000000     0.171      
C        C      0.460240000000     0.497850000000     0.176033333333    -0.029      
C        C      0.449640000000     0.284450000000     0.205433333333     0.425      
C        C      0.421140000000     0.268900000000     0.184566666667    -0.19       
C        C      0.586020000000     0.280700000000     0.179033333333     0.171      
C        C      0.434140000000     0.235950000000     0.174600000000    -0.029      
C        C      0.572900000000     0.308150000000     0.271600000000     0.426      
C        C      0.531880000000     0.276850000000     0.302833333333    -0.19       
C        C      0.493440000000     0.268550000000     0.300500000000     0.171      
C        C      0.538900000000     0.261900000000     0.001433333333    -0.029      
C        C      0.535860000000     0.407400000000     0.189633333333     0.425      
C        C      0.513580000000     0.454250000000     0.179266666667    -0.189      
C        C      0.473740000000     0.450750000000     0.187133333333     0.171      
C        C      0.539760000000     0.002150000000     0.157300000000    -0.029      
O        O      0.518860000000     0.237150000000     0.123800000000    -0.435      
O        O      0.561500000000     0.189300000000     0.117700000000    -0.599      
O        O      0.429440000000     0.184650000000     0.146900000000    -0.49       
O        O      0.593140000000     0.185700000000     0.051433333333    -0.435      
O        O      0.432120000000     0.176550000000     0.089433333333    -0.599      
O        O      0.517580000000     0.220350000000     0.063333333333    -0.49       
O        O      0.424000000000     0.077150000000     0.158100000000    -0.434      
O        O      0.485780000000     0.134150000000     0.126200000000    -0.599      
O        O      0.555580000000     0.095000000000     0.123100000000    -0.49       
O        O      0.481140000000     0.262850000000     0.209533333333    -0.435      
O        O      0.438500000000     0.310700000000     0.215633333333    -0.599      
O        O      0.570560000000     0.315350000000     0.186433333333    -0.49       
O        O      0.406860000000     0.314300000000     0.281900000000    -0.435      
O        O      0.567880000000     0.323450000000     0.243900000000    -0.599      
O        O      0.482420000000     0.279650000000     0.270000000000    -0.49       
O        O      0.576000000000     0.422850000000     0.175233333333    -0.434      
O        O      0.514220000000     0.365850000000     0.207133333333    -0.599      
O        O      0.444420000000     0.405000000000     0.210233333333    -0.49       
Ni       Ni     0.539640000000     0.156850000000     0.423000000000     1.093      
Ni       Ni     0.593440000000     0.134500000000     0.472433333333     1.093      
Ni       Ni     0.476900000000     0.208650000000     0.437900000000     1.094      
Ni       Ni     0.460360000000     0.343150000000     0.577000000000     1.093      
Ni       Ni     0.406560000000     0.365500000000     0.527566666667     1.093      
Ni       Ni     0.523100000000     0.291350000000     0.562100000000     1.094      
H        H      0.528800000000     0.271000000000     0.490000000000     0.053      
H        H      0.422800000000     0.235000000000     0.662666666667     0.053      
H        H      0.420400000000     0.494000000000     0.514000000000     0.052      
H        H      0.471200000000     0.229000000000     0.510000000000     0.053      
H        H      0.577200000000     0.265000000000     0.337333333333     0.053      
H        H      0.579600000000     0.006000000000     0.486000000000     0.052      
C        C      0.550360000000     0.215550000000     0.461233333333     0.425      
C        C      0.578860000000     0.231100000000     0.482100000000    -0.19       
C        C      0.413980000000     0.219300000000     0.487633333333     0.171      
C        C      0.565860000000     0.264050000000     0.492066666667    -0.029      
C        C      0.427100000000     0.191850000000     0.395066666667     0.426      
C        C      0.468120000000     0.223150000000     0.363833333333    -0.19       
C        C      0.506560000000     0.231450000000     0.366166666667     0.171      
C        C      0.461100000000     0.238100000000     0.665233333333    -0.029      
C        C      0.464140000000     0.092600000000     0.477033333333     0.425      
C        C      0.486420000000     0.045750000000     0.487400000000    -0.189      
C        C      0.526260000000     0.049250000000     0.479533333333     0.171      
C        C      0.460240000000     0.497850000000     0.509366666667    -0.029      
C        C      0.449640000000     0.284450000000     0.538766666667     0.425      
C        C      0.421140000000     0.268900000000     0.517900000000    -0.19       
C        C      0.586020000000     0.280700000000     0.512366666667     0.171      
C        C      0.434140000000     0.235950000000     0.507933333333    -0.029      
C        C      0.572900000000     0.308150000000     0.604933333333     0.426      
C        C      0.531880000000     0.276850000000     0.636166666667    -0.19       
C        C      0.493440000000     0.268550000000     0.633833333333     0.171      
C        C      0.538900000000     0.261900000000     0.334766666667    -0.029      
C        C      0.535860000000     0.407400000000     0.522966666667     0.425      
C        C      0.513580000000     0.454250000000     0.512600000000    -0.189      
C        C      0.473740000000     0.450750000000     0.520466666667     0.171      
C        C      0.539760000000     0.002150000000     0.490633333333    -0.029      
O        O      0.518860000000     0.237150000000     0.457133333333    -0.435      
O        O      0.561500000000     0.189300000000     0.451033333333    -0.599      
O        O      0.429440000000     0.184650000000     0.480233333333    -0.49       
O        O      0.593140000000     0.185700000000     0.384766666667    -0.435      
O        O      0.432120000000     0.176550000000     0.422766666667    -0.599      
O        O      0.517580000000     0.220350000000     0.396666666667    -0.49       
O        O      0.424000000000     0.077150000000     0.491433333333    -0.434      
O        O      0.485780000000     0.134150000000     0.459533333333    -0.599      
O        O      0.555580000000     0.095000000000     0.456433333333    -0.49       
O        O      0.481140000000     0.262850000000     0.542866666667    -0.435      
O        O      0.438500000000     0.310700000000     0.548966666667    -0.599      
O        O      0.570560000000     0.315350000000     0.519766666667    -0.49       
O        O      0.406860000000     0.314300000000     0.615233333333    -0.435      
O        O      0.567880000000     0.323450000000     0.577233333333    -0.599      
O        O      0.482420000000     0.279650000000     0.603333333333    -0.49       
O        O      0.576000000000     0.422850000000     0.508566666667    -0.434      
O        O      0.514220000000     0.365850000000     0.540466666667    -0.599      
O        O      0.444420000000     0.405000000000     0.543566666667    -0.49       
Ni       Ni     0.539640000000     0.156850000000     0.756333333333     1.093      
Ni       Ni     0.593440000000     0.134500000000     0.805766666667     1.093      
Ni       Ni     0.476900000000     0.208650000000     0.771233333333     1.094      
Ni       Ni     0.460360000000     0.343150000000     0.910333333333     1.093      
Ni       Ni     0.406560000000     0.365500000000     0.860900000000     1.093      
Ni       Ni     0.523100000000     0.291350000000     0.895433333333     1.094      
H        H      0.528800000000     0.271000000000     0.823333333333     0.053      
H        H      0.422800000000     0.235000000000     0.996000000000     0.053      
H        H      0.420400000000     0.494000000000     0.847333333333     0.052      
H        H      0.471200000000     0.229000000000     0.843333333333     0.053      
H        H      0.577200000000     0.265000000000     0.670666666667     0.053      
H        H      0.579600000000     0.006000000000     0.819333333333     0.052      
C        C      0.550360000000     0.215550000000     0.794566666667     0.425      
C        C      0.578860000000     0.231100000000     0.815433333333    -0.19       
C        C      0.413980000000     0.219300000000     0.820966666667     0.171      
C        C      0.565860000000     0.264050000000     0.825400000000    -0.029      
C        C      0.427100000000     0.191850000000     0.728400000000     0.426      
C        C      0.468120000000     0.223150000000     0.697166666667    -0.19       
C        C      0.506560000000     0.231450000000     0.699500000000     0.171      
C        C      0.461100000000     0.238100000000     0.998566666667    -0.029      
C        C      0.464140000000     0.092600000000     0.810366666667     0.425      
C        C      0.486420000000     0.045750000000     0.820733333333    -0.189      
C        C      0.526260000000     0.049250000000     0.812866666667     0.171      
C        C      0.460240000000     0.497850000000     0.842700000000    -0.029      
C        C      0.449640000000     0.284450000000     0.872100000000     0.425      
C        C      0.421140000000     0.268900000000     0.851233333333    -0.19       
C        C      0.586020000000     0.280700000000     0.845700000000     0.171      
C        C      0.434140000000     0.235950000000     0.841266666667    -0.029      
C        C      0.572900000000     0.308150000000     0.938266666667     0.426      
C        C      0.531880000000     0.276850000000     0.969500000000    -0.19       
C        C      0.493440000000     0.268550000000     0.967166666667     0.171      
C        C      0.538900000000     0.261900000000     0.668100000000    -0.029      
C        C      0.535860000000     0.407400000000     0.856300000000     0.425      
C        C      0.513580000000     0.454250000000     0.845933333333    -0.189      
C        C      0.473740000000     0.450750000000     0.853800000000     0.171      
C        C      0.539760000000     0.002150000000     0.823966666667    -0.029      
O        O      0.518860000000     0.237150000000     0.790466666667    -0.435      
O        O      0.561500000000     0.189300000000     0.784366666667    -0.599      
O        O      0.429440000000     0.184650000000     0.813566666667    -0.49       
O        O      0.593140000000     0.185700000000     0.718100000000    -0.435      
O        O      0.432120000000     0.176550000000     0.756100000000    -0.599      
O        O      0.517580000000     0.220350000000     0.730000000000    -0.49       
O        O      0.424000000000     0.077150000000     0.824766666667    -0.434      
O        O      0.485780000000     0.134150000000     0.792866666667    -0.599      
O        O      0.555580000000     0.095000000000     0.789766666667    -0.49       
O        O      0.481140000000     0.262850000000     0.876200000000    -0.435      
O        O      0.438500000000     0.310700000000     0.882300000000    -0.599      
O        O      0.570560000000     0.315350000000     0.853100000000    -0.49       
O        O      0.406860000000     0.314300000000     0.948566666667    -0.435      
O        O      0.567880000000     0.323450000000     0.910566666667    -0.599      
O        O      0.482420000000     0.279650000000     0.936666666667    -0.49       
O        O      0.576000000000     0.422850000000     0.841900000000    -0.434      
O        O      0.514220000000     0.365850000000     0.873800000000    -0.599      
O        O      0.444420000000     0.405000000000     0.876900000000    -0.49       
Ni       Ni     0.539640000000     0.656850000000     0.089666666667     1.093      
Ni       Ni     0.593440000000     0.634500000000     0.139100000000     1.093      
Ni       Ni     0.476900000000     0.708650000000     0.104566666667     1.094      
Ni       Ni     0.460360000000     0.843150000000     0.243666666667     1.093      
Ni       Ni     0.406560000000     0.865500000000     0.194233333333     1.093      
Ni       Ni     0.523100000000     0.791350000000     0.228766666667     1.094      
H        H      0.528800000000     0.771000000000     0.156666666667     0.053      
H        H      0.422800000000     0.735000000000     0.329333333333     0.053      
H        H      0.420400000000     0.994000000000     0.180666666667     0.052      
H        H      0.471200000000     0.729000000000     0.176666666667     0.053      
H        H      0.577200000000     0.765000000000     0.004000000000     0.053      
H        H      0.579600000000     0.506000000000     0.152666666667     0.052      
C        C      0.550360000000     0.715550000000     0.127900000000     0.425      
C        C      0.578860000000     0.731100000000     0.148766666667    -0.19       
C        C      0.413980000000     0.719300000000     0.154300000000     0.171      
C        C      0.565860000000     0.764050000000     0.158733333333    -0.029      
C        C      0.427100000000     0.691850000000     0.061733333333     0.426      
C        C      0.468120000000     0.723150000000     0.030500000000    -0.19       
C        C      0.506560000000     0.731450000000     0.032833333333     0.171      
C        C      0.461100000000     0.738100000000     0.331900000000    -0.029      
C        C      0.464140000000     0.592600000000     0.143700000000     0.425      
C        C      0.486420000000     0.545750000000     0.154066666667    -0.189      
C        C      0.526260000000     0.549250000000     0.146200000000     0.171      
C        C      0.460240000000     0.997850000000     0.176033333333    -0.029      
C        C      0.449640000000     0.784450000000     0.205433333333     0.425      
C        C      0.421140000000     0.768900000000     0.184566666667    -0.19       
C        C      0.586020000000     0.780700000000     0.179033333333     0.171      
C        C      0.434140000000     0.735950000000     0.174600000000    -0.029      
C        C      0.572900000000     0.808150000000     0.271600000000     0.426      
C        C      0.531880000000     0.776850000000     0.302833333333    -0.19       
C        C      0.493440000000     0.768550000000     0.300500000000     0.171      
C        C      0.538900000000     0.761900000000     0.001433333333    -0.029      
C        C      0.535860000000     0.907400000000     0.189633333333     0.425      
C        C      0.513580000000     0.954250000000     0.179266666667    -0.189      
C        C      0.473740000000     0.950750000000     0.187133333333     0.171      
C        C      0.539760000000     0.502150000000     0.157300000000    -0.029      
O        O      0.518860000000     0.737150000000     0.123800000000    -0.435      
O        O      0.561500000000     0.689300000000     0.117700000000    -0.599      
O        O      0.429440000000     0.684650000000     0.146900000000    -0.49       
O        O      0.593140000000     0.685700000000     0.051433333333    -0.435      
O        O      0.432120000000     0.676550000000     0.089433333333    -0.599      
O        O      0.517580000000     0.720350000000     0.063333333333    -0.49       
O        O      0.424000000000     0.577150000000     0.158100000000    -0.434      
O        O      0.485780000000     0.634150000000     0.126200000000    -0.599      
O        O      0.555580000000     0.595000000000     0.123100000000    -0.49       
O        O      0.481140000000     0.762850000000     0.209533333333    -0.435      
O        O      0.438500000000     0.810700000000     0.215633333333    -0.599      
O        O      0.570560000000     0.815350000000     0.186433333333    -0.49       
O        O      0.406860000000     0.814300000000     0.281900000000    -0.435      
O        O      0.567880000000     0.823450000000     0.243900000000    -0.599      
O        O      0.482420000000     0.779650000000     0.270000000000    -0.49       
O        O      0.576000000000     0.922850000000     0.175233333333    -0.434      
O        O      0.514220000000     0.865850000000     0.207133333333    -0.599      
O        O      0.444420000000     0.905000000000     0.210233333333    -0.49       
Ni       Ni     0.539640000000     0.656850000000     0.423000000000     1.093      
Ni       Ni     0.593440000000     0.634500000000     0.472433333333     1.093      
Ni       Ni     0.476900000000     0.708650000000     0.437900000000     1.094      
Ni       Ni     0.460360000000     0.843150000000     0.577000000000     1.093      
Ni       Ni     0.406560000000     0.865500000000     0.527566666667     1.093      
Ni       Ni     0.523100000000     0.791350000000     0.562100000000     1.094      
H        H      0.528800000000     0.771000000000     0.490000000000     0.053      
H        H      0.422800000000     0.735000000000     0.662666666667     0.053      
H        H      0.420400000000     0.994000000000     0.514000000000     0.052      
H        H      0.471200000000     0.729000000000     0.510000000000     0.053      
H        H      0.577200000000     0.765000000000     0.337333333333     0.053      
H        H      0.579600000000     0.506000000000     0.486000000000     0.052      
C        C      0.550360000000     0.715550000000     0.461233333333     0.425      
C        C      0.578860000000     0.731100000000     0.482100000000    -0.19       
C        C      0.413980000000     0.719300000000     0.487633333333     0.171      
C        C      0.565860000000     0.764050000000     0.492066666667    -0.029      
C        C      0.427100000000     0.691850000000     0.395066666667     0.426      
C        C      0.468120000000     0.723150000000     0.363833333333    -0.19       
C        C      0.506560000000     0.731450000000     0.366166666667     0.171      
C        C      0.461100000000     0.738100000000     0.665233333333    -0.029      
C        C      0.464140000000     0.592600000000     0.477033333333     0.425      
C        C      0.486420000000     0.545750000000     0.487400000000    -0.189      
C        C      0.526260000000     0.549250000000     0.479533333333     0.171      
C        C      0.460240000000     0.997850000000     0.509366666667    -0.029      
C        C      0.449640000000     0.784450000000     0.538766666667     0.425      
C        C      0.421140000000     0.768900000000     0.517900000000    -0.19       
C        C      0.586020000000     0.780700000000     0.512366666667     0.171      
C        C      0.434140000000     0.735950000000     0.507933333333    -0.029      
C        C      0.572900000000     0.808150000000     0.604933333333     0.426      
C        C      0.531880000000     0.776850000000     0.636166666667    -0.19       
C        C      0.493440000000     0.768550000000     0.633833333333     0.171      
C        C      0.538900000000     0.761900000000     0.334766666667    -0.029      
C        C      0.535860000000     0.907400000000     0.522966666667     0.425      
C        C      0.513580000000     0.954250000000     0.512600000000    -0.189      
C        C      0.473740000000     0.950750000000     0.520466666667     0.171      
C        C      0.539760000000     0.502150000000     0.490633333333    -0.029      
O        O      0.518860000000     0.737150000000     0.457133333333    -0.435      
O        O      0.561500000000     0.689300000000     0.451033333333    -0.599      
O        O      0.429440000000     0.684650000000     0.480233333333    -0.49       
O        O      0.593140000000     0.685700000000     0.384766666667    -0.435      
O        O      0.432120000000     0.676550000000     0.422766666667    -0.599      
O        O      0.517580000000     0.720350000000     0.396666666667    -0.49       
O        O      0.424000000000     0.577150000000     0.491433333333    -0.434      
O        O      0.485780000000     0.634150000000     0.459533333333    -0.599      
O        O      0.555580000000     0.595000000000     0.456433333333    -0.49       
O        O      0.481140000000     0.762850000000     0.542866666667    -0.435      
O        O      0.438500000000     0.810700000000     0.548966666667    -0.599      
O        O      0.570560000000     0.815350000000     0.519766666667    -0.49       
O        O      0.406860000000     0.814300000000     0.615233333333    -0.435      
O        O      0.567880000000     0.823450000000     0.577233333333    -0.599      
O        O      0.482420000000     0.779650000000     0.603333333333    -0.49       
O        O      0.576000000000     0.922850000000     0.508566666667    -0.434      
O        O      0.514220000000     0.865850000000     0.540466666667    -0.599      
O        O      0.444420000000     0.905000000000     0.543566666667    -0.49       
Ni       Ni     0.539640000000     0.656850000000     0.756333333333     1.093      
Ni       Ni     0.593440000000     0.634500000000     0.805766666667     1.093      
Ni       Ni     0.476900000000     0.708650000000     0.771233333333     1.094      
Ni       Ni     0.460360000000     0.843150000000     0.910333333333     1.093      
Ni       Ni     0.406560000000     0.865500000000     0.860900000000     1.093      
Ni       Ni     0.523100000000     0.791350000000     0.895433333333     1.094      
H        H      0.528800000000     0.771000000000     0.823333333333     0.053      
H        H      0.422800000000     0.735000000000     0.996000000000     0.053      
H        H      0.420400000000     0.994000000000     0.847333333333     0.052      
H        H      0.471200000000     0.729000000000     0.843333333333     0.053      
H        H      0.577200000000     0.765000000000     0.670666666667     0.053      
H        H      0.579600000000     0.506000000000     0.819333333333     0.052      
C        C      0.550360000000     0.715550000000     0.794566666667     0.425      
C        C      0.578860000000     0.731100000000     0.815433333333    -0.19       
C        C      0.413980000000     0.719300000000     0.820966666667     0.171      
C        C      0.565860000000     0.764050000000     0.825400000000    -0.029      
C        C      0.427100000000     0.691850000000     0.728400000000     0.426      
C        C      0.468120000000     0.723150000000     0.697166666667    -0.19       
C        C      0.506560000000     0.731450000000     0.699500000000     0.171      
C        C      0.461100000000     0.738100000000     0.998566666667    -0.029      
C        C      0.464140000000     0.592600000000     0.810366666667     0.425      
C        C      0.486420000000     0.545750000000     0.820733333333    -0.189      
C        C      0.526260000000     0.549250000000     0.812866666667     0.171      
C        C      0.460240000000     0.997850000000     0.842700000000    -0.029      
C        C      0.449640000000     0.784450000000     0.872100000000     0.425      
C        C      0.421140000000     0.768900000000     0.851233333333    -0.19       
C        C      0.586020000000     0.780700000000     0.845700000000     0.171      
C        C      0.434140000000     0.735950000000     0.841266666667    -0.029      
C        C      0.572900000000     0.808150000000     0.938266666667     0.426      
C        C      0.531880000000     0.776850000000     0.969500000000    -0.19       
C        C      0.493440000000     0.768550000000     0.967166666667     0.171      
C        C      0.538900000000     0.761900000000     0.668100000000    -0.029      
C        C      0.535860000000     0.907400000000     0.856300000000     0.425      
C        C      0.513580000000     0.954250000000     0.845933333333    -0.189      
C        C      0.473740000000     0.950750000000     0.853800000000     0.171      
C        C      0.539760000000     0.502150000000     0.823966666667    -0.029      
O        O      0.518860000000     0.737150000000     0.790466666667    -0.435      
O        O      0.561500000000     0.689300000000     0.784366666667    -0.599      
O        O      0.429440000000     0.684650000000     0.813566666667    -0.49       
O        O      0.593140000000     0.685700000000     0.718100000000    -0.435      
O        O      0.432120000000     0.676550000000     0.756100000000    -0.599      
O        O      0.517580000000     0.720350000000     0.730000000000    -0.49       
O        O      0.424000000000     0.577150000000     0.824766666667    -0.434      
O        O      0.485780000000     0.634150000000     0.792866666667    -0.599      
O        O      0.555580000000     0.595000000000     0.789766666667    -0.49       
O        O      0.481140000000     0.762850000000     0.876200000000    -0.435      
O        O      0.438500000000     0.810700000000     0.882300000000    -0.599      
O        O      0.570560000000     0.815350000000     0.853100000000    -0.49       
O        O      0.406860000000     0.814300000000     0.948566666667    -0.435      
O        O      0.567880000000     0.823450000000     0.910566666667    -0.599      
O        O      0.482420000000     0.779650000000     0.936666666667    -0.49       
O        O      0.576000000000     0.922850000000     0.841900000000    -0.434      
O        O      0.514220000000     0.865850000000     0.873800000000    -0.599      
O        O      0.444420000000     0.905000000000     0.876900000000    -0.49       
Ni       Ni     0.739640000000     0.156850000000     0.089666666667     1.093      
Ni       Ni     0.793440000000     0.134500000000     0.139100000000     1.093      
Ni       Ni     0.676900000000     0.208650000000     0.104566666667     1.094      
Ni       Ni     0.660360000000     0.343150000000     0.243666666667     1.093      
Ni       Ni     0.606560000000     0.365500000000     0.194233333333     1.093      
Ni       Ni     0.723100000000     0.291350000000     0.228766666667     1.094      
H        H      0.728800000000     0.271000000000     0.156666666667     0.053      
H        H      0.622800000000     0.235000000000     0.329333333333     0.053      
H        H      0.620400000000     0.494000000000     0.180666666667     0.052      
H        H      0.671200000000     0.229000000000     0.176666666667     0.053      
H        H      0.777200000000     0.265000000000     0.004000000000     0.053      
H        H      0.779600000000     0.006000000000     0.152666666667     0.052      
C        C      0.750360000000     0.215550000000     0.127900000000     0.425      
C        C      0.778860000000     0.231100000000     0.148766666667    -0.19       
C        C      0.613980000000     0.219300000000     0.154300000000     0.171      
C        C      0.765860000000     0.264050000000     0.158733333333    -0.029      
C        C      0.627100000000     0.191850000000     0.061733333333     0.426      
C        C      0.668120000000     0.223150000000     0.030500000000    -0.19       
C        C      0.706560000000     0.231450000000     0.032833333333     0.171      
C        C      0.661100000000     0.238100000000     0.331900000000    -0.029      
C        C      0.664140000000     0.092600000000     0.143700000000     0.425      
C        C      0.686420000000     0.045750000000     0.154066666667    -0.189      
C        C      0.726260000000     0.049250000000     0.146200000000     0.171      
C        C      0.660240000000     0.497850000000     0.176033333333    -0.029      
C        C      0.649640000000     0.284450000000     0.205433333333     0.425      
C        C      0.621140000000     0.268900000000     0.184566666667    -0.19       
C        C      0.786020000000     0.280700000000     0.179033333333     0.171      
C        C      0.634140000000     0.235950000000     0.174600000000    -0.029      
C        C      0.772900000000     0.308150000000     0.271600000000     0.426      
C        C      0.731880000000     0.276850000000     0.302833333333    -0.19       
C        C      0.693440000000     0.268550000000     0.300500000000     0.171      
C        C      0.738900000000     0.261900000000     0.001433333333    -0.029      
C        C      0.735860000000     0.407400000000     0.189633333333     0.425      
C        C      0.713580000000     0.454250000000     0.179266666667    -0.189      
C        C      0.673740000000     0.450750000000     0.187133333333     0.171      
C        C      0.739760000000     0.002150000000     0.157300000000    -0.029      
O        O      0.718860000000     0.237150000000     0.123800000000    -0.435      
O        O      0.761500000000     0.189300000000     0.117700000000    -0.599      
O        O      0.629440000000     0.184650000000     0.146900000000    -0.49       
O        O      0.793140000000     0.185700000000     0.051433333333    -0.435      
O        O      0.632120000000     0.176550000000     0.089433333333    -0.599      
O        O      0.717580000000     0.220350000000     0.063333333333    -0.49       
O        O      0.624000000000     0.077150000000     0.158100000000    -0.434      
O        O      0.685780000000     0.134150000000     0.126200000000    -0.599      
O        O      0.755580000000     0.095000000000     0.123100000000    -0.49       
O        O      0.681140000000     0.262850000000     0.209533333333    -0.435      
O        O      0.638500000000     0.310700000000     0.215633333333    -0.599      
O        O      0.770560000000     0.315350000000     0.186433333333    -0.49       
O        O      0.606860000000     0.314300000000     0.281900000000    -0.435      
O        O      0.767880000000     0.323450000000     0.243900000000    -0.599      
O        O      0.682420000000     0.279650000000     0.270000000000    -0.49       
O        O      0.776000000000     0.422850000000     0.175233333333    -0.434      
O        O      0.714220000000     0.365850000000     0.207133333333    -0.599      
O        O      0.644420000000     0.405000000000     0.210233333333    -0.49       
Ni       Ni     0.739640000000     0.156850000000     0.423000000000     1.093      
Ni       Ni     0.793440000000     0.134500000000     0.472433333333     1.093      
Ni       Ni     0.676900000000     0.208650000000     0.437900000000     1.094      
Ni       Ni     0.660360000000     0.343150000000     0.577000000000     1.093      
Ni       Ni     0.606560000000     0.365500000000     0.527566666667     1.093      
Ni       Ni     0.723100000000     0.291350000000     0.562100000000     1.094      
H        H      0.728800000000     0.271000000000     0.490000000000     0.053      
H        H      0.622800000000     0.235000000000     0.662666666667     0.053      
H        H      0.620400000000     0.494000000000     0.514000000000     0.052      
H        H      0.671200000000     0.229000000000     0.510000000000     0.053      
H        H      0.777200000000     0.265000000000     0.337333333333     0.053      
H        H      0.779600000000     0.006000000000     0.486000000000     0.052      
C        C      0.750360000000     0.215550000000     0.461233333333     0.425      
C        C      0.778860000000     0.231100000000     0.482100000000    -0.19       
C        C      0.613980000000     0.219300000000     0.487633333333     0.171      
C        C      0.765860000000     0.264050000000     0.492066666667    -0.029      
C        C      0.627100000000     0.191850000000     0.395066666667     0.426      
C        C      0.668120000000     0.223150000000     0.363833333333    -0.19       
C        C      0.706560000000     0.231450000000     0.366166666667     0.171      
C        C      0.661100000000     0.238100000000     0.665233333333    -0.029      
C        C      0.664140000000     0.092600000000     0.477033333333     0.425      
C        C      0.686420000000     0.045750000000     0.487400000000    -0.189      
C        C      0.726260000000     0.049250000000     0.479533333333     0.171      
C        C      0.660240000000     0.497850000000     0.509366666667    -0.029      
C        C      0.649640000000     0.284450000000     0.538766666667     0.425      
C        C      0.621140000000     0.268900000000     0.517900000000    -0.19       
C        C      0.786020000000     0.280700000000     0.512366666667     0.171      
C        C      0.634140000000     0.235950000000     0.507933333333    -0.029      
C        C      0.772900000000     0.308150000000     0.604933333333     0.426      
C        C      0.731880000000     0.276850000000     0.636166666667    -0.19       
C        C      0.693440000000     0.268550000000     0.633833333333     0.171      
C        C      0.738900000000     0.261900000000     0.334766666667    -0.029      
C        C      0.735860000000     0.407400000000     0.522966666667     0.425      
C        C      0.713580000000     0.454250000000     0.512600000000    -0.189      
C        C      0.673740000000     0.450750000000     0.520466666667     0.171      
C        C      0.739760000000     0.002150000000     0.490633333333    -0.029      
O        O      0.718860000000     0.237150000000     0.457133333333    -0.435      
O        O      0.761500000000     0.189300000000     0.451033333333    -0.599      
O        O      0.629440000000     0.184650000000     0.480233333333    -0.49       
O        O      0.793140000000     0.185700000000     0.384766666667    -0.435      
O        O      0.632120000000     0.176550000000     0.422766666667    -0.599      
O        O      0.717580000000     0.220350000000     0.396666666667    -0.49       
O        O      0.624000000000     0.077150000000     0.491433333333    -0.434      
O        O      0.685780000000     0.134150000000     0.459533333333    -0.599      
O        O      0.755580000000     0.095000000000     0.456433333333    -0.49       
O        O      0.681140000000     0.262850000000     0.542866666667    -0.435      
O        O      0.638500000000     0.310700000000     0.548966666667    -0.599      
O        O      0.770560000000     0.315350000000     0.519766666667    -0.49       
O        O      0.606860000000     0.314300000000     0.615233333333    -0.435      
O        O      0.767880000000     0.323450000000     0.577233333333    -0.599      
O        O      0.682420000000     0.279650000000     0.603333333333    -0.49       
O        O      0.776000000000     0.422850000000     0.508566666667    -0.434      
O        O      0.714220000000     0.365850000000     0.540466666667    -0.599      
O        O      0.644420000000     0.405000000000     0.543566666667    -0.49       
Ni       Ni     0.739640000000     0.156850000000     0.756333333333     1.093      
Ni       Ni     0.793440000000     0.134500000000     0.805766666667     1.093      
Ni       Ni     0.676900000000     0.208650000000     0.771233333333     1.094      
Ni       Ni     0.660360000000     0.343150000000     0.910333333333     1.093      
Ni       Ni     0.606560000000     0.365500000000     0.860900000000     1.093      
Ni       Ni     0.723100000000     0.291350000000     0.895433333333     1.094      
H        H      0.728800000000     0.271000000000     0.823333333333     0.053      
H        H      0.622800000000     0.235000000000     0.996000000000     0.053      
H        H      0.620400000000     0.494000000000     0.847333333333     0.052      
H        H      0.671200000000     0.229000000000     0.843333333333     0.053      
H        H      0.777200000000     0.265000000000     0.670666666667     0.053      
H        H      0.779600000000     0.006000000000     0.819333333333     0.052      
C        C      0.750360000000     0.215550000000     0.794566666667     0.425      
C        C      0.778860000000     0.231100000000     0.815433333333    -0.19       
C        C      0.613980000000     0.219300000000     0.820966666667     0.171      
C        C      0.765860000000     0.264050000000     0.825400000000    -0.029      
C        C      0.627100000000     0.191850000000     0.728400000000     0.426      
C        C      0.668120000000     0.223150000000     0.697166666667    -0.19       
C        C      0.706560000000     0.231450000000     0.699500000000     0.171      
C        C      0.661100000000     0.238100000000     0.998566666667    -0.029      
C        C      0.664140000000     0.092600000000     0.810366666667     0.425      
C        C      0.686420000000     0.045750000000     0.820733333333    -0.189      
C        C      0.726260000000     0.049250000000     0.812866666667     0.171      
C        C      0.660240000000     0.497850000000     0.842700000000    -0.029      
C        C      0.649640000000     0.284450000000     0.872100000000     0.425      
C        C      0.621140000000     0.268900000000     0.851233333333    -0.19       
C        C      0.786020000000     0.280700000000     0.845700000000     0.171      
C        C      0.634140000000     0.235950000000     0.841266666667    -0.029      
C        C      0.772900000000     0.308150000000     0.938266666667     0.426      
C        C      0.731880000000     0.276850000000     0.969500000000    -0.19       
C        C      0.693440000000     0.268550000000     0.967166666667     0.171      
C        C      0.738900000000     0.261900000000     0.668100000000    -0.029      
C        C      0.735860000000     0.407400000000     0.856300000000     0.425      
C        C      0.713580000000     0.454250000000     0.845933333333    -0.189      
C        C      0.673740000000     0.450750000000     0.853800000000     0.171      
C        C      0.739760000000     0.002150000000     0.823966666667    -0.029      
O        O      0.718860000000     0.237150000000     0.790466666667    -0.435      
O        O      0.761500000000     0.189300000000     0.784366666667    -0.599      
O        O      0.629440000000     0.184650000000     0.813566666667    -0.49       
O        O      0.793140000000     0.185700000000     0.718100000000    -0.435      
O        O      0.632120000000     0.176550000000     0.756100000000    -0.599      
O        O      0.717580000000     0.220350000000     0.730000000000    -0.49       
O        O      0.624000000000     0.077150000000     0.824766666667    -0.434      
O        O      0.685780000000     0.134150000000     0.792866666667    -0.599      
O        O      0.755580000000     0.095000000000     0.789766666667    -0.49       
O        O      0.681140000000     0.262850000000     0.876200000000    -0.435      
O        O      0.638500000000     0.310700000000     0.882300000000    -0.599      
O        O      0.770560000000     0.315350000000     0.853100000000    -0.49       
O        O      0.606860000000     0.314300000000     0.948566666667    -0.435      
O        O      0.767880000000     0.323450000000     0.910566666667    -0.599      
O        O      0.682420000000     0.279650000000     0.936666666667    -0.49       
O        O      0.776000000000     0.422850000000     0.841900000000    -0.434      
O        O      0.714220000000     0.365850000000     0.873800000000    -0.599      
O        O      0.644420000000     0.405000000000     0.876900000000    -0.49       
Ni       Ni     0.739640000000     0.656850000000     0.089666666667     1.093      
Ni       Ni     0.793440000000     0.634500000000     0.139100000000     1.093      
Ni       Ni     0.676900000000     0.708650000000     0.104566666667     1.094      
Ni       Ni     0.660360000000     0.843150000000     0.243666666667     1.093      
Ni       Ni     0.606560000000     0.865500000000     0.194233333333     1.093      
Ni       Ni     0.723100000000     0.791350000000     0.228766666667     1.094      
H        H      0.728800000000     0.771000000000     0.156666666667     0.053      
H        H      0.622800000000     0.735000000000     0.329333333333     0.053      
H        H      0.620400000000     0.994000000000     0.180666666667     0.052      
H        H      0.671200000000     0.729000000000     0.176666666667     0.053      
H        H      0.777200000000     0.765000000000     0.004000000000     0.053      
H        H      0.779600000000     0.506000000000     0.152666666667     0.052      
C        C      0.750360000000     0.715550000000     0.127900000000     0.425      
C        C      0.778860000000     0.731100000000     0.148766666667    -0.19       
C        C      0.613980000000     0.719300000000     0.154300000000     0.171      
C        C      0.765860000000     0.764050000000     0.158733333333    -0.029      
C        C      0.627100000000     0.691850000000     0.061733333333     0.426      
C        C      0.668120000000     0.723150000000     0.030500000000    -0.19       
C        C      0.706560000000     0.731450000000     0.032833333333     0.171      
C        C      0.661100000000     0.738100000000     0.331900000000    -0.029      
C        C      0.664140000000     0.592600000000     0.143700000000     0.425      
C        C      0.686420000000     0.545750000000     0.154066666667    -0.189      
C        C      0.726260000000     0.549250000000     0.146200000000     0.171      
C        C      0.660240000000     0.997850000000     0.176033333333    -0.029      
C        C      0.649640000000     0.784450000000     0.205433333333     0.425      
C        C      0.621140000000     0.768900000000     0.184566666667    -0.19       
C        C      0.786020000000     0.780700000000     0.179033333333     0.171      
C        C      0.634140000000     0.735950000000     0.174600000000    -0.029      
C        C      0.772900000000     0.808150000000     0.271600000000     0.426      
C        C      0.731880000000     0.776850000000     0.302833333333    -0.19       
C        C      0.693440000000     0.768550000000     0.300500000000     0.171      
C        C      0.738900000000     0.761900000000     0.001433333333    -0.029      
C        C      0.735860000000     0.907400000000     0.189633333333     0.425      
C        C      0.713580000000     0.954250000000     0.179266666667    -0.189      
C        C      0.673740000000     0.950750000000     0.187133333333     0.171      
C        C      0.739760000000     0.502150000000     0.157300000000    -0.029      
O        O      0.718860000000     0.737150000000     0.123800000000    -0.435      
O        O      0.761500000000     0.689300000000     0.117700000000    -0.599      
O        O      0.629440000000     0.684650000000     0.146900000000    -0.49       
O        O      0.793140000000     0.685700000000     0.051433333333    -0.435      
O        O      0.632120000000     0.676550000000     0.089433333333    -0.599      
O        O      0.717580000000     0.720350000000     0.063333333333    -0.49       
O        O      0.624000000000     0.577150000000     0.158100000000    -0.434      
O        O      0.685780000000     0.634150000000     0.126200000000    -0.599      
O        O      0.755580000000     0.595000000000     0.123100000000    -0.49       
O        O      0.681140000000     0.762850000000     0.209533333333    -0.435      
O        O      0.638500000000     0.810700000000     0.215633333333    -0.599      
O        O      0.770560000000     0.815350000000     0.186433333333    -0.49       
O        O      0.606860000000     0.814300000000     0.281900000000    -0.435      
O        O      0.767880000000     0.823450000000     0.243900000000    -0.599      
O        O      0.682420000000     0.779650000000     0.270000000000    -0.49       
O        O      0.776000000000     0.922850000000     0.175233333333    -0.434      
O        O      0.714220000000     0.865850000000     0.207133333333    -0.599      
O        O      0.644420000000     0.905000000000     0.210233333333    -0.49       
Ni       Ni     0.739640000000     0.656850000000     0.423000000000     1.093      
Ni       Ni     0.793440000000     0.634500000000     0.472433333333     1.093      
Ni       Ni     0.676900000000     0.708650000000     0.437900000000     1.094      
Ni       Ni     0.660360000000     0.843150000000     0.577000000000     1.093      
Ni       Ni     0.606560000000     0.865500000000     0.527566666667     1.093      
Ni       Ni     0.723100000000     0.791350000000     0.562100000000     1.094      
H        H      0.728800000000     0.771000000000     0.490000000000     0.053      
H        H      0.622800000000     0.735000000000     0.662666666667     0.053      
H        H      0.620400000000     0.994000000000     0.514000000000     0.052      
H        H      0.671200000000     0.729000000000     0.510000000000     0.053      
H        H      0.777200000000     0.765000000000     0.337333333333     0.053      
H        H      0.779600000000     0.506000000000     0.486000000000     0.052      
C        C      0.750360000000     0.715550000000     0.461233333333     0.425      
C        C      0.778860000000     0.731100000000     0.482100000000    -0.19       
C        C      0.613980000000     0.719300000000     0.487633333333     0.171      
C        C      0.765860000000     0.764050000000     0.492066666667    -0.029      
C        C      0.627100000000     0.691850000000     0.395066666667     0.426      
C        C      0.668120000000     0.723150000000     0.363833333333    -0.19       
C        C      0.706560000000     0.731450000000     0.366166666667     0.171      
C        C      0.661100000000     0.738100000000     0.665233333333    -0.029      
C        C      0.664140000000     0.592600000000     0.477033333333     0.425      
C        C      0.686420000000     0.545750000000     0.487400000000    -0.189      
C        C      0.726260000000     0.549250000000     0.479533333333     0.171      
C        C      0.660240000000     0.997850000000     0.509366666667    -0.029      
C        C      0.649640000000     0.784450000000     0.538766666667     0.425      
C        C      0.621140000000     0.768900000000     0.517900000000    -0.19       
C        C      0.786020000000     0.780700000000     0.512366666667     0.171      
C        C      0.634140000000     0.735950000000     0.507933333333    -0.029      
C        C      0.772900000000     0.808150000000     0.604933333333     0.426      
C        C      0.731880000000     0.776850000000     0.636166666667    -0.19       
C        C      0.693440000000     0.768550000000     0.633833333333     0.171      
C        C      0.738900000000     0.761900000000     0.334766666667    -0.029      
C        C      0.735860000000     0.907400000000     0.522966666667     0.425      
C        C      0.713580000000     0.954250000000     0.512600000000    -0.189      
C        C      0.673740000000     0.950750000000     0.520466666667     0.171      
C        C      0.739760000000     0.502150000000     0.490633333333    -0.029      
O        O      0.718860000000     0.737150000000     0.457133333333    -0.435      
O        O      0.761500000000     0.689300000000     0.451033333333    -0.599      
O        O      0.629440000000     0.684650000000     0.480233333333    -0.49       
O        O      0.793140000000     0.685700000000     0.384766666667    -0.435      
O        O      0.632120000000     0.676550000000     0.422766666667    -0.599      
O        O      0.717580000000     0.720350000000     0.396666666667    -0.49       
O        O      0.624000000000     0.577150000000     0.491433333333    -0.434      
O        O      0.685780000000     0.634150000000     0.459533333333    -0.599      
O        O      0.755580000000     0.595000000000     0.456433333333    -0.49       
O        O      0.681140000000     0.762850000000     0.542866666667    -0.435      
O        O      0.638500000000     0.810700000000     0.548966666667    -0.599      
O        O      0.770560000000     0.815350000000     0.519766666667    -0.49       
O        O      0.606860000000     0.814300000000     0.615233333333    -0.435      
O        O      0.767880000000     0.823450000000     0.577233333333    -0.599      
O        O      0.682420000000     0.779650000000     0.603333333333    -0.49       
O        O      0.776000000000     0.922850000000     0.508566666667    -0.434      
O        O      0.714220000000     0.865850000000     0.540466666667    -0.599      
O        O      0.644420000000     0.905000000000     0.543566666667    -0.49       
Ni       Ni     0.739640000000     0.656850000000     0.756333333333     1.093      
Ni       Ni     0.793440000000     0.634500000000     0.805766666667     1.093      
Ni       Ni     0.676900000000     0.708650000000     0.771233333333     1.094      
Ni       Ni     0.660360000000     0.843150000000     0.910333333333     1.093      
Ni       Ni     0.606560000000     0.865500000000     0.860900000000     1.093      
Ni       Ni     0.723100000000     0.791350000000     0.895433333333     1.094      
H        H      0.728800000000     0.771000000000     0.823333333333     0.053      
H        H      0.622800000000     0.735000000000     0.996000000000     0.053      
H        H      0.620400000000     0.994000000000     0.847333333333     0.052      
H        H      0.671200000000     0.729000000000     0.843333333333     0.053      
H        H      0.777200000000     0.765000000000     0.670666666667     0.053      
H        H      0.779600000000     0.506000000000     0.819333333333     0.052      
C        C      0.750360000000     0.715550000000     0.794566666667     0.425      
C        C      0.778860000000     0.731100000000     0.815433333333    -0.19       
C        C      0.613980000000     0.719300000000     0.820966666667     0.171      
C        C      0.765860000000     0.764050000000     0.825400000000    -0.029      
C        C      0.627100000000     0.691850000000     0.728400000000     0.426      
C        C      0.668120000000     0.723150000000     0.697166666667    -0.19       
C        C      0.706560000000     0.731450000000     0.699500000000     0.171      
C        C      0.661100000000     0.738100000000     0.998566666667    -0.029      
C        C      0.664140000000     0.592600000000     0.810366666667     0.425      
C        C      0.686420000000     0.545750000000     0.820733333333    -0.189      
C        C      0.726260000000     0.549250000000     0.812866666667     0.171      
C        C      0.660240000000     0.997850000000     0.842700000000    -0.029      
C        C      0.649640000000     0.784450000000     0.872100000000     0.425      
C        C      0.621140000000     0.768900000000     0.851233333333    -0.19       
C        C      0.786020000000     0.780700000000     0.845700000000     0.171      
C        C      0.634140000000     0.735950000000     0.841266666667    -0.029      
C        C      0.772900000000     0.808150000000     0.938266666667     0.426      
C        C      0.731880000000     0.776850000000     0.969500000000    -0.19       
C        C      0.693440000000     0.768550000000     0.967166666667     0.171      
C        C      0.738900000000     0.761900000000     0.668100000000    -0.029      
C        C      0.735860000000     0.907400000000     0.856300000000     0.425      
C        C      0.713580000000     0.954250000000     0.845933333333    -0.189      
C        C      0.673740000000     0.950750000000     0.853800000000     0.171      
C        C      0.739760000000     0.502150000000     0.823966666667    -0.029      
O        O      0.718860000000     0.737150000000     0.790466666667    -0.435      
O        O      0.761500000000     0.689300000000     0.784366666667    -0.599      
O        O      0.629440000000     0.684650000000     0.813566666667    -0.49       
O        O      0.793140000000     0.685700000000     0.718100000000    -0.435      
O        O      0.632120000000     0.676550000000     0.756100000000    -0.599      
O        O      0.717580000000     0.720350000000     0.730000000000    -0.49       
O        O      0.624000000000     0.577150000000     0.824766666667    -0.434      
O        O      0.685780000000     0.634150000000     0.792866666667    -0.599      
O        O      0.755580000000     0.595000000000     0.789766666667    -0.49       
O        O      0.681140000000     0.762850000000     0.876200000000    -0.435      
O        O      0.638500000000     0.810700000000     0.882300000000    -0.599      
O        O      0.770560000000     0.815350000000     0.853100000000    -0.49       
O        O      0.606860000000     0.814300000000     0.948566666667    -0.435      
O        O      0.767880000000     0.823450000000     0.910566666667    -0.599      
O        O      0.682420000000     0.779650000000     0.936666666667    -0.49       
O        O      0.776000000000     0.922850000000     0.841900000000    -0.434      
O        O      0.714220000000     0.865850000000     0.873800000000    -0.599      
O        O      0.644420000000     0.905000000000     0.876900000000    -0.49       
Ni       Ni     0.939640000000     0.156850000000     0.089666666667     1.093      
Ni       Ni     0.993440000000     0.134500000000     0.139100000000     1.093      
Ni       Ni     0.876900000000     0.208650000000     0.104566666667     1.094      
Ni       Ni     0.860360000000     0.343150000000     0.243666666667     1.093      
Ni       Ni     0.806560000000     0.365500000000     0.194233333333     1.093      
Ni       Ni     0.923100000000     0.291350000000     0.228766666667     1.094      
H        H      0.928800000000     0.271000000000     0.156666666667     0.053      
H        H      0.822800000000     0.235000000000     0.329333333333     0.053      
H        H      0.820400000000     0.494000000000     0.180666666667     0.052      
H        H      0.871200000000     0.229000000000     0.176666666667     0.053      
H        H      0.977200000000     0.265000000000     0.004000000000     0.053      
H        H      0.979600000000     0.006000000000     0.152666666667     0.052      
C        C      0.950360000000     0.215550000000     0.127900000000     0.425      
C        C      0.978860000000     0.231100000000     0.148766666667    -0.19       
C        C      0.813980000000     0.219300000000     0.154300000000     0.171      
C        C      0.965860000000     0.264050000000     0.158733333333    -0.029      
C        C      0.827100000000     0.191850000000     0.061733333333     0.426      
C        C      0.868120000000     0.223150000000     0.030500000000    -0.19       
C        C      0.906560000000     0.231450000000     0.032833333333     0.171      
C        C      0.861100000000     0.238100000000     0.331900000000    -0.029      
C        C      0.864140000000     0.092600000000     0.143700000000     0.425      
C        C      0.886420000000     0.045750000000     0.154066666667    -0.189      
C        C      0.926260000000     0.049250000000     0.146200000000     0.171      
C        C      0.860240000000     0.497850000000     0.176033333333    -0.029      
C        C      0.849640000000     0.284450000000     0.205433333333     0.425      
C        C      0.821140000000     0.268900000000     0.184566666667    -0.19       
C        C      0.986020000000     0.280700000000     0.179033333333     0.171      
C        C      0.834140000000     0.235950000000     0.174600000000    -0.029      
C        C      0.972900000000     0.308150000000     0.271600000000     0.426      
C        C      0.931880000000     0.276850000000     0.302833333333    -0.19       
C        C      0.893440000000     0.268550000000     0.300500000000     0.171      
C        C      0.938900000000     0.261900000000     0.001433333333    -0.029      
C        C      0.935860000000     0.407400000000     0.189633333333     0.425      
C        C      0.913580000000     0.454250000000     0.179266666667    -0.189      
C        C      0.873740000000     0.450750000000     0.187133333333     0.171      
C        C      0.939760000000     0.002150000000     0.157300000000    -0.029      
O        O      0.918860000000     0.237150000000     0.123800000000    -0.435      
O        O      0.961500000000     0.189300000000     0.117700000000    -0.599      
O        O      0.829440000000     0.184650000000     0.146900000000    -0.49       
O        O      0.993140000000     0.185700000000     0.051433333333    -0.435      
O        O      0.832120000000     0.176550000000     0.089433333333    -0.599      
O        O      0.917580000000     0.220350000000     0.063333333333    -0.49       
O        O      0.824000000000     0.077150000000     0.158100000000    -0.434      
O        O      0.885780000000     0.134150000000     0.126200000000    -0.599      
O        O      0.955580000000     0.095000000000     0.123100000000    -0.49       
O        O      0.881140000000     0.262850000000     0.209533333333    -0.435      
O        O      0.838500000000     0.310700000000     0.215633333333    -0.599      
O        O      0.970560000000     0.315350000000     0.186433333333    -0.49       
O        O      0.806860000000     0.314300000000     0.281900000000    -0.435      
O        O      0.967880000000     0.323450000000     0.243900000000    -0.599      
O        O      0.882420000000     0.279650000000     0.270000000000    -0.49       
O        O      0.976000000000     0.422850000000     0.175233333333    -0.434      
O        O      0.914220000000     0.365850000000     0.207133333333    -0.599      
O        O      0.844420000000     0.405000000000     0.210233333333    -0.49       
Ni       Ni     0.939640000000     0.156850000000     0.423000000000     1.093      
Ni       Ni     0.993440000000     0.134500000000     0.472433333333     1.093      
Ni       Ni     0.876900000000     0.208650000000     0.437900000000     1.094      
Ni       Ni     0.860360000000     0.343150000000     0.577000000000     1.093      
Ni       Ni     0.806560000000     0.365500000000     0.527566666667     1.093      
Ni       Ni     0.923100000000     0.291350000000     0.562100000000     1.094      
H        H      0.928800000000     0.271000000000     0.490000000000     0.053      
H        H      0.822800000000     0.235000000000     0.662666666667     0.053      
H        H      0.820400000000     0.494000000000     0.514000000000     0.052      
H        H      0.871200000000     0.229000000000     0.510000000000     0.053      
H        H      0.977200000000     0.265000000000     0.337333333333     0.053      
H        H      0.979600000000     0.006000000000     0.486000000000     0.052      
C        C      0.950360000000     0.215550000000     0.461233333333     0.425      
C        C      0.978860000000     0.231100000000     0.482100000000    -0.19       
C        C      0.813980000000     0.219300000000     0.487633333333     0.171      
C        C      0.965860000000     0.264050000000     0.492066666667    -0.029      
C        C      0.827100000000     0.191850000000     0.395066666667     0.426      
C        C      0.868120000000     0.223150000000     0.363833333333    -0.19       
C        C      0.906560000000     0.231450000000     0.366166666667     0.171      
C        C      0.861100000000     0.238100000000     0.665233333333    -0.029      
C        C      0.864140000000     0.092600000000     0.477033333333     0.425      
C        C      0.886420000000     0.045750000000     0.487400000000    -0.189      
C        C      0.926260000000     0.049250000000     0.479533333333     0.171      
C        C      0.860240000000     0.497850000000     0.509366666667    -0.029      
C        C      0.849640000000     0.284450000000     0.538766666667     0.425      
C        C      0.821140000000     0.268900000000     0.517900000000    -0.19       
C        C      0.986020000000     0.280700000000     0.512366666667     0.171      
C        C      0.834140000000     0.235950000000     0.507933333333    -0.029      
C        C      0.972900000000     0.308150000000     0.604933333333     0.426      
C        C      0.931880000000     0.276850000000     0.636166666667    -0.19       
C        C      0.893440000000     0.268550000000     0.633833333333     0.171      
C        C      0.938900000000     0.261900000000     0.334766666667    -0.029      
C        C      0.935860000000     0.407400000000     0.522966666667     0.425      
C        C      0.913580000000     0.454250000000     0.512600000000    -0.189      
C        C      0.873740000000     0.450750000000     0.520466666667     0.171      
C        C      0.939760000000     0.002150000000     0.490633333333    -0.029      
O        O      0.918860000000     0.237150000000     0.457133333333    -0.435      
O        O      0.961500000000     0.189300000000     0.451033333333    -0.599      
O        O      0.829440000000     0.184650000000     0.480233333333    -0.49       
O        O      0.993140000000     0.185700000000     0.384766666667    -0.435      
O        O      0.832120000000     0.176550000000     0.422766666667    -0.599      
O        O      0.917580000000     0.220350000000     0.396666666667    -0.49       
O        O      0.824000000000     0.077150000000     0.491433333333    -0.434      
O        O      0.885780000000     0.134150000000     0.459533333333    -0.599      
O        O      0.955580000000     0.095000000000     0.456433333333    -0.49       
O        O      0.881140000000     0.262850000000     0.542866666667    -0.435      
O        O      0.838500000000     0.310700000000     0.548966666667    -0.599      
O        O      0.970560000000     0.315350000000     0.519766666667    -0.49       
O        O      0.806860000000     0.314300000000     0.615233333333    -0.435      
O        O      0.967880000000     0.323450000000     0.577233333333    -0.599      
O        O      0.882420000000     0.279650000000     0.603333333333    -0.49       
O        O      0.976000000000     0.422850000000     0.508566666667    -0.434      
O        O      0.914220000000     0.365850000000     0.540466666667    -0.599      
O        O      0.844420000000     0.405000000000     0.543566666667    -0.49       
Ni       Ni     0.939640000000     0.156850000000     0.756333333333     1.093      
Ni       Ni     0.993440000000     0.134500000000     0.805766666667     1.093      
Ni       Ni     0.876900000000     0.208650000000     0.771233333333     1.094      
Ni       Ni     0.860360000000     0.343150000000     0.910333333333     1.093      
Ni       Ni     0.806560000000     0.365500000000     0.860900000000     1.093      
Ni       Ni     0.923100000000     0.291350000000     0.895433333333     1.094      
H        H      0.928800000000     0.271000000000     0.823333333333     0.053      
H        H      0.822800000000     0.235000000000     0.996000000000     0.053      
H        H      0.820400000000     0.494000000000     0.847333333333     0.052      
H        H      0.871200000000     0.229000000000     0.843333333333     0.053      
H        H      0.977200000000     0.265000000000     0.670666666667     0.053      
H        H      0.979600000000     0.006000000000     0.819333333333     0.052      
C        C      0.950360000000     0.215550000000     0.794566666667     0.425      
C        C      0.978860000000     0.231100000000     0.815433333333    -0.19       
C        C      0.813980000000     0.219300000000     0.820966666667     0.171      
C        C      0.965860000000     0.264050000000     0.825400000000    -0.029      
C        C      0.827100000000     0.191850000000     0.728400000000     0.426      
C        C      0.868120000000     0.223150000000     0.697166666667    -0.19       
C        C      0.906560000000     0.231450000000     0.699500000000     0.171      
C        C      0.861100000000     0.238100000000     0.998566666667    -0.029      
C        C      0.864140000000     0.092600000000     0.810366666667     0.425      
C        C      0.886420000000     0.045750000000     0.820733333333    -0.189      
C        C      0.926260000000     0.049250000000     0.812866666667     0.171      
C        C      0.860240000000     0.497850000000     0.842700000000    -0.029      
C        C      0.849640000000     0.284450000000     0.872100000000     0.425      
C        C      0.821140000000     0.268900000000     0.851233333333    -0.19       
C        C      0.986020000000     0.280700000000     0.845700000000     0.171      
C        C      0.834140000000     0.235950000000     0.841266666667    -0.029      
C        C      0.972900000000     0.308150000000     0.938266666667     0.426      
C        C      0.931880000000     0.276850000000     0.969500000000    -0.19       
C        C      0.893440000000     0.268550000000     0.967166666667     0.171      
C        C      0.938900000000     0.261900000000     0.668100000000    -0.029      
C        C      0.935860000000     0.407400000000     0.856300000000     0.425      
C        C      0.913580000000     0.454250000000     0.845933333333    -0.189      
C        C      0.873740000000     0.450750000000     0.853800000000     0.171      
C        C      0.939760000000     0.002150000000     0.823966666667    -0.029      
O        O      0.918860000000     0.237150000000     0.790466666667    -0.435      
O        O      0.961500000000     0.189300000000     0.784366666667    -0.599      
O        O      0.829440000000     0.184650000000     0.813566666667    -0.49       
O        O      0.993140000000     0.185700000000     0.718100000000    -0.435      
O        O      0.832120000000     0.176550000000     0.756100000000    -0.599      
O        O      0.917580000000     0.220350000000     0.730000000000    -0.49       
O        O      0.824000000000     0.077150000000     0.824766666667    -0.434      
O        O      0.885780000000     0.134150000000     0.792866666667    -0.599      
O        O      0.955580000000     0.095000000000     0.789766666667    -0.49       
O        O      0.881140000000     0.262850000000     0.876200000000    -0.435      
O        O      0.838500000000     0.310700000000     0.882300000000    -0.599      
O        O      0.970560000000     0.315350000000     0.853100000000    -0.49       
O        O      0.806860000000     0.314300000000     0.948566666667    -0.435      
O        O      0.967880000000     0.323450000000     0.910566666667    -0.599      
O        O      0.882420000000     0.279650000000     0.936666666667    -0.49       
O        O      0.976000000000     0.422850000000     0.841900000000    -0.434      
O        O      0.914220000000     0.365850000000     0.873800000000    -0.599      
O        O      0.844420000000     0.405000000000     0.876900000000    -0.49       
Ni       Ni     0.939640000000     0.656850000000     0.089666666667     1.093      
Ni       Ni     0.993440000000     0.634500000000     0.139100000000     1.093      
Ni       Ni     0.876900000000     0.708650000000     0.104566666667     1.094      
Ni       Ni     0.860360000000     0.843150000000     0.243666666667     1.093      
Ni       Ni     0.806560000000     0.865500000000     0.194233333333     1.093      
Ni       Ni     0.923100000000     0.791350000000     0.228766666667     1.094      
H        H      0.928800000000     0.771000000000     0.156666666667     0.053      
H        H      0.822800000000     0.735000000000     0.329333333333     0.053      
H        H      0.820400000000     0.994000000000     0.180666666667     0.052      
H        H      0.871200000000     0.729000000000     0.176666666667     0.053      
H        H      0.977200000000     0.765000000000     0.004000000000     0.053      
H        H      0.979600000000     0.506000000000     0.152666666667     0.052      
C        C      0.950360000000     0.715550000000     0.127900000000     0.425      
C        C      0.978860000000     0.731100000000     0.148766666667    -0.19       
C        C      0.813980000000     0.719300000000     0.154300000000     0.171      
C        C      0.965860000000     0.764050000000     0.158733333333    -0.029      
C        C      0.827100000000     0.691850000000     0.061733333333     0.426      
C        C      0.868120000000     0.723150000000     0.030500000000    -0.19       
C        C      0.906560000000     0.731450000000     0.032833333333     0.171      
C        C      0.861100000000     0.738100000000     0.331900000000    -0.029      
C        C      0.864140000000     0.592600000000     0.143700000000     0.425      
C        C      0.886420000000     0.545750000000     0.154066666667    -0.189      
C        C      0.926260000000     0.549250000000     0.146200000000     0.171      
C        C      0.860240000000     0.997850000000     0.176033333333    -0.029      
C        C      0.849640000000     0.784450000000     0.205433333333     0.425      
C        C      0.821140000000     0.768900000000     0.184566666667    -0.19       
C        C      0.986020000000     0.780700000000     0.179033333333     0.171      
C        C      0.834140000000     0.735950000000     0.174600000000    -0.029      
C        C      0.972900000000     0.808150000000     0.271600000000     0.426      
C        C      0.931880000000     0.776850000000     0.302833333333    -0.19       
C        C      0.893440000000     0.768550000000     0.300500000000     0.171      
C        C      0.938900000000     0.761900000000     0.001433333333    -0.029      
C        C      0.935860000000     0.907400000000     0.189633333333     0.425      
C        C      0.913580000000     0.954250000000     0.179266666667    -0.189      
C        C      0.873740000000     0.950750000000     0.187133333333     0.171      
C        C      0.939760000000     0.502150000000     0.157300000000    -0.029      
O        O      0.918860000000     0.737150000000     0.123800000000    -0.435      
O        O      0.961500000000     0.689300000000     0.117700000000    -0.599      
O        O      0.829440000000     0.684650000000     0.146900000000    -0.49       
O        O      0.993140000000     0.685700000000     0.051433333333    -0.435      
O        O      0.832120000000     0.676550000000     0.089433333333    -0.599      
O        O      0.917580000000     0.720350000000     0.063333333333    -0.49       
O        O      0.824000000000     0.577150000000     0.158100000000    -0.434      
O        O      0.885780000000     0.634150000000     0.126200000000    -0.599      
O        O      0.955580000000     0.595000000000     0.123100000000    -0.49       
O        O      0.881140000000     0.762850000000     0.209533333333    -0.435      
O        O      0.838500000000     0.810700000000     0.215633333333    -0.599      
O        O      0.970560000000     0.815350000000     0.186433333333    -0.49       
O        O      0.806860000000     0.814300000000     0.281900000000    -0.435      
O        O      0.967880000000     0.823450000000     0.243900000000    -0.599      
O        O      0.882420000000     0.779650000000     0.270000000000    -0.49       
O        O      0.976000000000     0.922850000000     0.175233333333    -0.434      
O        O      0.914220000000     0.865850000000     0.207133333333    -0.599      
O        O      0.844420000000     0.905000000000     0.210233333333    -0.49       
Ni       Ni     0.939640000000     0.656850000000     0.423000000000     1.093      
Ni       Ni     0.993440000000     0.634500000000     0.472433333333     1.093      
Ni       Ni     0.876900000000     0.708650000000     0.437900000000     1.094      
Ni       Ni     0.860360000000     0.843150000000     0.577000000000     1.093      
Ni       Ni     0.806560000000     0.865500000000     0.527566666667     1.093      
Ni       Ni     0.923100000000     0.791350000000     0.562100000000     1.094      
H        H      0.928800000000     0.771000000000     0.490000000000     0.053      
H        H      0.822800000000     0.735000000000     0.662666666667     0.053      
H        H      0.820400000000     0.994000000000     0.514000000000     0.052      
H        H      0.871200000000     0.729000000000     0.510000000000     0.053      
H        H      0.977200000000     0.765000000000     0.337333333333     0.053      
H        H      0.979600000000     0.506000000000     0.486000000000     0.052      
C        C      0.950360000000     0.715550000000     0.461233333333     0.425      
C        C      0.978860000000     0.731100000000     0.482100000000    -0.19       
C        C      0.813980000000     0.719300000000     0.487633333333     0.171      
C        C      0.965860000000     0.764050000000     0.492066666667    -0.029      
C        C      0.827100000000     0.691850000000     0.395066666667     0.426      
C        C      0.868120000000     0.723150000000     0.363833333333    -0.19       
C        C      0.906560000000     0.731450000000     0.366166666667     0.171      
C        C      0.861100000000     0.738100000000     0.665233333333    -0.029      
C        C      0.864140000000     0.592600000000     0.477033333333     0.425      
C        C      0.886420000000     0.545750000000     0.487400000000    -0.189      
C        C      0.926260000000     0.549250000000     0.479533333333     0.171      
C        C      0.860240000000     0.997850000000     0.509366666667    -0.029      
C        C      0.849640000000     0.784450000000     0.538766666667     0.425      
C        C      0.821140000000     0.768900000000     0.517900000000    -0.19       
C        C      0.986020000000     0.780700000000     0.512366666667     0.171      
C        C      0.834140000000     0.735950000000     0.507933333333    -0.029      
C        C      0.972900000000     0.808150000000     0.604933333333     0.426      
C        C      0.931880000000     0.776850000000     0.636166666667    -0.19       
C        C      0.893440000000     0.768550000000     0.633833333333     0.171      
C        C      0.938900000000     0.761900000000     0.334766666667    -0.029      
C        C      0.935860000000     0.907400000000     0.522966666667     0.425      
C        C      0.913580000000     0.954250000000     0.512600000000    -0.189      
C        C      0.873740000000     0.950750000000     0.520466666667     0.171      
C        C      0.939760000000     0.502150000000     0.490633333333    -0.029      
O        O      0.918860000000     0.737150000000     0.457133333333    -0.435      
O        O      0.961500000000     0.689300000000     0.451033333333    -0.599      
O        O      0.829440000000     0.684650000000     0.480233333333    -0.49       
O        O      0.993140000000     0.685700000000     0.384766666667    -0.435      
O        O      0.832120000000     0.676550000000     0.422766666667    -0.599      
O        O      0.917580000000     0.720350000000     0.396666666667    -0.49       
O        O      0.824000000000     0.577150000000     0.491433333333    -0.434      
O        O      0.885780000000     0.634150000000     0.459533333333    -0.599      
O        O      0.955580000000     0.595000000000     0.456433333333    -0.49       
O        O      0.881140000000     0.762850000000     0.542866666667    -0.435      
O        O      0.838500000000     0.810700000000     0.548966666667    -0.599      
O        O      0.970560000000     0.815350000000     0.519766666667    -0.49       
O        O      0.806860000000     0.814300000000     0.615233333333    -0.435      
O        O      0.967880000000     0.823450000000     0.577233333333    -0.599      
O        O      0.882420000000     0.779650000000     0.603333333333    -0.49       
O        O      0.976000000000     0.922850000000     0.508566666667    -0.434      
O        O      0.914220000000     0.865850000000     0.540466666667    -0.599      
O        O      0.844420000000     0.905000000000     0.543566666667    -0.49       
Ni       Ni     0.939640000000     0.656850000000     0.756333333333     1.093      
Ni       Ni     0.993440000000     0.634500000000     0.805766666667     1.093      
Ni       Ni     0.876900000000     0.708650000000     0.771233333333     1.094      
Ni       Ni     0.860360000000     0.843150000000     0.910333333333     1.093      
Ni       Ni     0.806560000000     0.865500000000     0.860900000000     1.093      
Ni       Ni     0.923100000000     0.791350000000     0.895433333333     1.094      
H        H      0.928800000000     0.771000000000     0.823333333333     0.053      
H        H      0.822800000000     0.735000000000     0.996000000000     0.053      
H        H      0.820400000000     0.994000000000     0.847333333333     0.052      
H        H      0.871200000000     0.729000000000     0.843333333333     0.053      
H        H      0.977200000000     0.765000000000     0.670666666667     0.053      
H        H      0.979600000000     0.506000000000     0.819333333333     0.052      
C        C      0.950360000000     0.715550000000     0.794566666667     0.425      
C        C      0.978860000000     0.731100000000     0.815433333333    -0.19       
C        C      0.813980000000     0.719300000000     0.820966666667     0.171      
C        C      0.965860000000     0.764050000000     0.825400000000    -0.029      
C        C      0.827100000000     0.691850000000     0.728400000000     0.426      
C        C      0.868120000000     0.723150000000     0.697166666667    -0.19       
C        C      0.906560000000     0.731450000000     0.699500000000     0.171      
C        C      0.861100000000     0.738100000000     0.998566666667    -0.029      
C        C      0.864140000000     0.592600000000     0.810366666667     0.425      
C        C      0.886420000000     0.545750000000     0.820733333333    -0.189      
C        C      0.926260000000     0.549250000000     0.812866666667     0.171      
C        C      0.860240000000     0.997850000000     0.842700000000    -0.029      
C        C      0.849640000000     0.784450000000     0.872100000000     0.425      
C        C      0.821140000000     0.768900000000     0.851233333333    -0.19       
C        C      0.986020000000     0.780700000000     0.845700000000     0.171      
C        C      0.834140000000     0.735950000000     0.841266666667    -0.029      
C        C      0.972900000000     0.808150000000     0.938266666667     0.426      
C        C      0.931880000000     0.776850000000     0.969500000000    -0.19       
C        C      0.893440000000     0.768550000000     0.967166666667     0.171      
C        C      0.938900000000     0.761900000000     0.668100000000    -0.029      
C        C      0.935860000000     0.907400000000     0.856300000000     0.425      
C        C      0.913580000000     0.954250000000     0.845933333333    -0.189      
C        C      0.873740000000     0.950750000000     0.853800000000     0.171      
C        C      0.939760000000     0.502150000000     0.823966666667    -0.029      
O        O      0.918860000000     0.737150000000     0.790466666667    -0.435      
O        O      0.961500000000     0.689300000000     0.784366666667    -0.599      
O        O      0.829440000000     0.684650000000     0.813566666667    -0.49       
O        O      0.993140000000     0.685700000000     0.718100000000    -0.435      
O        O      0.832120000000     0.676550000000     0.756100000000    -0.599      
O        O      0.917580000000     0.720350000000     0.730000000000    -0.49       
O        O      0.824000000000     0.577150000000     0.824766666667    -0.434      
O        O      0.885780000000     0.634150000000     0.792866666667    -0.599      
O        O      0.955580000000     0.595000000000     0.789766666667    -0.49       
O        O      0.881140000000     0.762850000000     0.876200000000    -0.435      
O        O      0.838500000000     0.810700000000     0.882300000000    -0.599      
O        O      0.970560000000     0.815350000000     0.853100000000    -0.49       
O        O      0.806860000000     0.814300000000     0.948566666667    -0.435      
O        O      0.967880000000     0.823450000000     0.910566666667    -0.599      
O        O      0.882420000000     0.779650000000     0.936666666667    -0.49       
O        O      0.976000000000     0.922850000000     0.841900000000    -0.434      
O        O      0.914220000000     0.865850000000     0.873800000000    -0.599      
O        O      0.844420000000     0.905000000000     0.876900000000    -0.49       


