data_LAGNUE_clean

_audit_creation_method RASPA-1.0
_audit_creation_date 2025-9-8
_audit_author_name ''

_cell_length_a    9.6292
_cell_length_b    11.1006
_cell_length_c    16.0263
_cell_angle_alpha 91.066
_cell_angle_beta  90
_cell_angle_gamma 90
_cell_volume      30829.6

_symmetry_cell_setting          triclinic
_symmetry_space_group_name_Hall 'P 1'
_symmetry_space_group_name_H-M  'P 1'
_symmetry_Int_Tables_number     1

_symmetry_equiv_pos_as_xyz 'x,y,z'

loop_
_atom_site_label
_atom_site_type_symbol
_atom_site_fract_x
_atom_site_fract_y
_atom_site_fract_z
_atom_site_charge
C        C      0.318266666667     0.130900000000     0.382200000000     0.05       
C        C      0.028033333333     0.116966666667     0.370000000000     0.05       
C        C      0.032933333333     0.093600000000     0.334200000000     0.05       
C        C      0.328066666667     0.084133333333     0.309800000000     0.05       
C        C      0.285666666667     0.099466666667     0.320600000000     0.05       
C        C      0.280300000000     0.122800000000     0.356500000000     0.05       
C        C      0.310300000000     0.151166666667     0.424000000000     0.05       
C        C      0.332766666667     0.055033333333     0.273350000000     0.05       
C        C      0.332866666667     0.041633333333     0.004700000000     0.05       
C        C      0.040466666667     0.020400000000     0.009650000000     0.05       
C        C      0.292000000000     0.020933333333     0.495250000000     0.05       
C        C      0.332900000000     0.086800000000     0.009450000000     0.05       
C        C      0.151600000000     0.035766666667     0.367800000000     0.05       
C        C      0.194700000000     0.049700000000     0.380000000000     0.05       
C        C      0.199600000000     0.073066666667     0.415800000000     0.05       
C        C      0.161400000000     0.082533333333     0.440200000000     0.05       
C        C      0.119000000000     0.067200000000     0.429400000000     0.05       
C        C      0.113633333333     0.043866666667     0.393500000000     0.05       
C        C      0.143633333333     0.015500000000     0.326000000000     0.05       
C        C      0.166100000000     0.111633333333     0.476650000000     0.05       
C        C      0.166200000000     0.125033333333     0.245300000000     0.05       
C        C      0.207133333333     0.146266666667     0.240350000000     0.05       
C        C      0.125333333333     0.145733333333     0.254750000000     0.05       
C        C      0.166233333333     0.079866666667     0.240550000000     0.05       
C        C      0.015066666667     0.202433333333     0.117800000000     0.05       
C        C      0.305300000000     0.216366666667     0.130000000000     0.05       
C        C      0.300400000000     0.239733333333     0.165800000000     0.05       
C        C      0.005266666667     0.249200000000     0.190200000000     0.05       
C        C      0.047666666667     0.233866666667     0.179400000000     0.05       
C        C      0.053033333333     0.210533333333     0.143500000000     0.05       
C        C      0.023033333333     0.182166666667     0.076000000000     0.05       
C        C      0.000566666667     0.278300000000     0.226650000000     0.05       
C        C      0.000466666667     0.291700000000     0.495300000000     0.05       
C        C      0.292866666667     0.312933333333     0.490350000000     0.05       
C        C      0.041333333333     0.312400000000     0.004750000000     0.05       
C        C      0.000433333333     0.246533333333     0.490550000000     0.05       
C        C      0.181733333333     0.297566666667     0.132200000000     0.05       
C        C      0.138633333333     0.283633333333     0.120000000000     0.05       
C        C      0.133733333333     0.260266666667     0.084200000000     0.05       
C        C      0.171933333333     0.250800000000     0.059800000000     0.05       
C        C      0.214333333333     0.266133333333     0.070600000000     0.05       
C        C      0.219700000000     0.289466666667     0.106500000000     0.05       
C        C      0.189700000000     0.317833333333     0.174000000000     0.05       
C        C      0.167233333333     0.221700000000     0.023350000000     0.05       
C        C      0.167133333333     0.208300000000     0.254700000000     0.05       
C        C      0.126200000000     0.187066666667     0.259650000000     0.05       
C        C      0.208000000000     0.187600000000     0.245250000000     0.05       
C        C      0.167100000000     0.253466666667     0.259450000000     0.05       
C        C      0.318266666667     0.130900000000     0.882200000000     0.05       
C        C      0.028033333333     0.116966666667     0.870000000000     0.05       
C        C      0.032933333333     0.093600000000     0.834200000000     0.05       
C        C      0.328066666667     0.084133333333     0.809800000000     0.05       
C        C      0.285666666667     0.099466666667     0.820600000000     0.05       
C        C      0.280300000000     0.122800000000     0.856500000000     0.05       
C        C      0.310300000000     0.151166666667     0.924000000000     0.05       
C        C      0.332766666667     0.055033333333     0.773350000000     0.05       
C        C      0.332866666667     0.041633333333     0.504700000000     0.05       
C        C      0.040466666667     0.020400000000     0.509650000000     0.05       
C        C      0.292000000000     0.020933333333     0.995250000000     0.05       
C        C      0.332900000000     0.086800000000     0.509450000000     0.05       
C        C      0.151600000000     0.035766666667     0.867800000000     0.05       
C        C      0.194700000000     0.049700000000     0.880000000000     0.05       
C        C      0.199600000000     0.073066666667     0.915800000000     0.05       
C        C      0.161400000000     0.082533333333     0.940200000000     0.05       
C        C      0.119000000000     0.067200000000     0.929400000000     0.05       
C        C      0.113633333333     0.043866666667     0.893500000000     0.05       
C        C      0.143633333333     0.015500000000     0.826000000000     0.05       
C        C      0.166100000000     0.111633333333     0.976650000000     0.05       
C        C      0.166200000000     0.125033333333     0.745300000000     0.05       
C        C      0.207133333333     0.146266666667     0.740350000000     0.05       
C        C      0.125333333333     0.145733333333     0.754750000000     0.05       
C        C      0.166233333333     0.079866666667     0.740550000000     0.05       
C        C      0.015066666667     0.202433333333     0.617800000000     0.05       
C        C      0.305300000000     0.216366666667     0.630000000000     0.05       
C        C      0.300400000000     0.239733333333     0.665800000000     0.05       
C        C      0.005266666667     0.249200000000     0.690200000000     0.05       
C        C      0.047666666667     0.233866666667     0.679400000000     0.05       
C        C      0.053033333333     0.210533333333     0.643500000000     0.05       
C        C      0.023033333333     0.182166666667     0.576000000000     0.05       
C        C      0.000566666667     0.278300000000     0.726650000000     0.05       
C        C      0.000466666667     0.291700000000     0.995300000000     0.05       
C        C      0.292866666667     0.312933333333     0.990350000000     0.05       
C        C      0.041333333333     0.312400000000     0.504750000000     0.05       
C        C      0.000433333333     0.246533333333     0.990550000000     0.05       
C        C      0.181733333333     0.297566666667     0.632200000000     0.05       
C        C      0.138633333333     0.283633333333     0.620000000000     0.05       
C        C      0.133733333333     0.260266666667     0.584200000000     0.05       
C        C      0.171933333333     0.250800000000     0.559800000000     0.05       
C        C      0.214333333333     0.266133333333     0.570600000000     0.05       
C        C      0.219700000000     0.289466666667     0.606500000000     0.05       
C        C      0.189700000000     0.317833333333     0.674000000000     0.05       
C        C      0.167233333333     0.221700000000     0.523350000000     0.05       
C        C      0.167133333333     0.208300000000     0.754700000000     0.05       
C        C      0.126200000000     0.187066666667     0.759650000000     0.05       
C        C      0.208000000000     0.187600000000     0.745250000000     0.05       
C        C      0.167100000000     0.253466666667     0.759450000000     0.05       
C        C      0.318266666667     0.464233333333     0.382200000000     0.05       
C        C      0.028033333333     0.450300000000     0.370000000000     0.05       
C        C      0.032933333333     0.426933333333     0.334200000000     0.05       
C        C      0.328066666667     0.417466666667     0.309800000000     0.05       
C        C      0.285666666667     0.432800000000     0.320600000000     0.05       
C        C      0.280300000000     0.456133333333     0.356500000000     0.05       
C        C      0.310300000000     0.484500000000     0.424000000000     0.05       
C        C      0.332766666667     0.388366666667     0.273350000000     0.05       
C        C      0.332866666667     0.374966666667     0.004700000000     0.05       
C        C      0.040466666667     0.353733333333     0.009650000000     0.05       
C        C      0.292000000000     0.354266666667     0.495250000000     0.05       
C        C      0.332900000000     0.420133333333     0.009450000000     0.05       
C        C      0.151600000000     0.369100000000     0.367800000000     0.05       
C        C      0.194700000000     0.383033333333     0.380000000000     0.05       
C        C      0.199600000000     0.406400000000     0.415800000000     0.05       
C        C      0.161400000000     0.415866666667     0.440200000000     0.05       
C        C      0.119000000000     0.400533333333     0.429400000000     0.05       
C        C      0.113633333333     0.377200000000     0.393500000000     0.05       
C        C      0.143633333333     0.348833333333     0.326000000000     0.05       
C        C      0.166100000000     0.444966666667     0.476650000000     0.05       
C        C      0.166200000000     0.458366666667     0.245300000000     0.05       
C        C      0.207133333333     0.479600000000     0.240350000000     0.05       
C        C      0.125333333333     0.479066666667     0.254750000000     0.05       
C        C      0.166233333333     0.413200000000     0.240550000000     0.05       
C        C      0.015066666667     0.535766666667     0.117800000000     0.05       
C        C      0.305300000000     0.549700000000     0.130000000000     0.05       
C        C      0.300400000000     0.573066666667     0.165800000000     0.05       
C        C      0.005266666667     0.582533333333     0.190200000000     0.05       
C        C      0.047666666667     0.567200000000     0.179400000000     0.05       
C        C      0.053033333333     0.543866666667     0.143500000000     0.05       
C        C      0.023033333333     0.515500000000     0.076000000000     0.05       
C        C      0.000566666667     0.611633333333     0.226650000000     0.05       
C        C      0.000466666667     0.625033333333     0.495300000000     0.05       
C        C      0.292866666667     0.646266666667     0.490350000000     0.05       
C        C      0.041333333333     0.645733333333     0.004750000000     0.05       
C        C      0.000433333333     0.579866666667     0.490550000000     0.05       
C        C      0.181733333333     0.630900000000     0.132200000000     0.05       
C        C      0.138633333333     0.616966666667     0.120000000000     0.05       
C        C      0.133733333333     0.593600000000     0.084200000000     0.05       
C        C      0.171933333333     0.584133333333     0.059800000000     0.05       
C        C      0.214333333333     0.599466666667     0.070600000000     0.05       
C        C      0.219700000000     0.622800000000     0.106500000000     0.05       
C        C      0.189700000000     0.651166666667     0.174000000000     0.05       
C        C      0.167233333333     0.555033333333     0.023350000000     0.05       
C        C      0.167133333333     0.541633333333     0.254700000000     0.05       
C        C      0.126200000000     0.520400000000     0.259650000000     0.05       
C        C      0.208000000000     0.520933333333     0.245250000000     0.05       
C        C      0.167100000000     0.586800000000     0.259450000000     0.05       
C        C      0.318266666667     0.464233333333     0.882200000000     0.05       
C        C      0.028033333333     0.450300000000     0.870000000000     0.05       
C        C      0.032933333333     0.426933333333     0.834200000000     0.05       
C        C      0.328066666667     0.417466666667     0.809800000000     0.05       
C        C      0.285666666667     0.432800000000     0.820600000000     0.05       
C        C      0.280300000000     0.456133333333     0.856500000000     0.05       
C        C      0.310300000000     0.484500000000     0.924000000000     0.05       
C        C      0.332766666667     0.388366666667     0.773350000000     0.05       
C        C      0.332866666667     0.374966666667     0.504700000000     0.05       
C        C      0.040466666667     0.353733333333     0.509650000000     0.05       
C        C      0.292000000000     0.354266666667     0.995250000000     0.05       
C        C      0.332900000000     0.420133333333     0.509450000000     0.05       
C        C      0.151600000000     0.369100000000     0.867800000000     0.05       
C        C      0.194700000000     0.383033333333     0.880000000000     0.05       
C        C      0.199600000000     0.406400000000     0.915800000000     0.05       
C        C      0.161400000000     0.415866666667     0.940200000000     0.05       
C        C      0.119000000000     0.400533333333     0.929400000000     0.05       
C        C      0.113633333333     0.377200000000     0.893500000000     0.05       
C        C      0.143633333333     0.348833333333     0.826000000000     0.05       
C        C      0.166100000000     0.444966666667     0.976650000000     0.05       
C        C      0.166200000000     0.458366666667     0.745300000000     0.05       
C        C      0.207133333333     0.479600000000     0.740350000000     0.05       
C        C      0.125333333333     0.479066666667     0.754750000000     0.05       
C        C      0.166233333333     0.413200000000     0.740550000000     0.05       
C        C      0.015066666667     0.535766666667     0.617800000000     0.05       
C        C      0.305300000000     0.549700000000     0.630000000000     0.05       
C        C      0.300400000000     0.573066666667     0.665800000000     0.05       
C        C      0.005266666667     0.582533333333     0.690200000000     0.05       
C        C      0.047666666667     0.567200000000     0.679400000000     0.05       
C        C      0.053033333333     0.543866666667     0.643500000000     0.05       
C        C      0.023033333333     0.515500000000     0.576000000000     0.05       
C        C      0.000566666667     0.611633333333     0.726650000000     0.05       
C        C      0.000466666667     0.625033333333     0.995300000000     0.05       
C        C      0.292866666667     0.646266666667     0.990350000000     0.05       
C        C      0.041333333333     0.645733333333     0.504750000000     0.05       
C        C      0.000433333333     0.579866666667     0.990550000000     0.05       
C        C      0.181733333333     0.630900000000     0.632200000000     0.05       
C        C      0.138633333333     0.616966666667     0.620000000000     0.05       
C        C      0.133733333333     0.593600000000     0.584200000000     0.05       
C        C      0.171933333333     0.584133333333     0.559800000000     0.05       
C        C      0.214333333333     0.599466666667     0.570600000000     0.05       
C        C      0.219700000000     0.622800000000     0.606500000000     0.05       
C        C      0.189700000000     0.651166666667     0.674000000000     0.05       
C        C      0.167233333333     0.555033333333     0.523350000000     0.05       
C        C      0.167133333333     0.541633333333     0.754700000000     0.05       
C        C      0.126200000000     0.520400000000     0.759650000000     0.05       
C        C      0.208000000000     0.520933333333     0.745250000000     0.05       
C        C      0.167100000000     0.586800000000     0.759450000000     0.05       
C        C      0.318266666667     0.797566666667     0.382200000000     0.05       
C        C      0.028033333333     0.783633333333     0.370000000000     0.05       
C        C      0.032933333333     0.760266666667     0.334200000000     0.05       
C        C      0.328066666667     0.750800000000     0.309800000000     0.05       
C        C      0.285666666667     0.766133333333     0.320600000000     0.05       
C        C      0.280300000000     0.789466666667     0.356500000000     0.05       
C        C      0.310300000000     0.817833333333     0.424000000000     0.05       
C        C      0.332766666667     0.721700000000     0.273350000000     0.05       
C        C      0.332866666667     0.708300000000     0.004700000000     0.05       
C        C      0.040466666667     0.687066666667     0.009650000000     0.05       
C        C      0.292000000000     0.687600000000     0.495250000000     0.05       
C        C      0.332900000000     0.753466666667     0.009450000000     0.05       
C        C      0.151600000000     0.702433333333     0.367800000000     0.05       
C        C      0.194700000000     0.716366666667     0.380000000000     0.05       
C        C      0.199600000000     0.739733333333     0.415800000000     0.05       
C        C      0.161400000000     0.749200000000     0.440200000000     0.05       
C        C      0.119000000000     0.733866666667     0.429400000000     0.05       
C        C      0.113633333333     0.710533333333     0.393500000000     0.05       
C        C      0.143633333333     0.682166666667     0.326000000000     0.05       
C        C      0.166100000000     0.778300000000     0.476650000000     0.05       
C        C      0.166200000000     0.791700000000     0.245300000000     0.05       
C        C      0.207133333333     0.812933333333     0.240350000000     0.05       
C        C      0.125333333333     0.812400000000     0.254750000000     0.05       
C        C      0.166233333333     0.746533333333     0.240550000000     0.05       
C        C      0.015066666667     0.869100000000     0.117800000000     0.05       
C        C      0.305300000000     0.883033333333     0.130000000000     0.05       
C        C      0.300400000000     0.906400000000     0.165800000000     0.05       
C        C      0.005266666667     0.915866666667     0.190200000000     0.05       
C        C      0.047666666667     0.900533333333     0.179400000000     0.05       
C        C      0.053033333333     0.877200000000     0.143500000000     0.05       
C        C      0.023033333333     0.848833333333     0.076000000000     0.05       
C        C      0.000566666667     0.944966666667     0.226650000000     0.05       
C        C      0.000466666667     0.958366666667     0.495300000000     0.05       
C        C      0.292866666667     0.979600000000     0.490350000000     0.05       
C        C      0.041333333333     0.979066666667     0.004750000000     0.05       
C        C      0.000433333333     0.913200000000     0.490550000000     0.05       
C        C      0.181733333333     0.964233333333     0.132200000000     0.05       
C        C      0.138633333333     0.950300000000     0.120000000000     0.05       
C        C      0.133733333333     0.926933333333     0.084200000000     0.05       
C        C      0.171933333333     0.917466666667     0.059800000000     0.05       
C        C      0.214333333333     0.932800000000     0.070600000000     0.05       
C        C      0.219700000000     0.956133333333     0.106500000000     0.05       
C        C      0.189700000000     0.984500000000     0.174000000000     0.05       
C        C      0.167233333333     0.888366666667     0.023350000000     0.05       
C        C      0.167133333333     0.874966666667     0.254700000000     0.05       
C        C      0.126200000000     0.853733333333     0.259650000000     0.05       
C        C      0.208000000000     0.854266666667     0.245250000000     0.05       
C        C      0.167100000000     0.920133333333     0.259450000000     0.05       
C        C      0.318266666667     0.797566666667     0.882200000000     0.05       
C        C      0.028033333333     0.783633333333     0.870000000000     0.05       
C        C      0.032933333333     0.760266666667     0.834200000000     0.05       
C        C      0.328066666667     0.750800000000     0.809800000000     0.05       
C        C      0.285666666667     0.766133333333     0.820600000000     0.05       
C        C      0.280300000000     0.789466666667     0.856500000000     0.05       
C        C      0.310300000000     0.817833333333     0.924000000000     0.05       
C        C      0.332766666667     0.721700000000     0.773350000000     0.05       
C        C      0.332866666667     0.708300000000     0.504700000000     0.05       
C        C      0.040466666667     0.687066666667     0.509650000000     0.05       
C        C      0.292000000000     0.687600000000     0.995250000000     0.05       
C        C      0.332900000000     0.753466666667     0.509450000000     0.05       
C        C      0.151600000000     0.702433333333     0.867800000000     0.05       
C        C      0.194700000000     0.716366666667     0.880000000000     0.05       
C        C      0.199600000000     0.739733333333     0.915800000000     0.05       
C        C      0.161400000000     0.749200000000     0.940200000000     0.05       
C        C      0.119000000000     0.733866666667     0.929400000000     0.05       
C        C      0.113633333333     0.710533333333     0.893500000000     0.05       
C        C      0.143633333333     0.682166666667     0.826000000000     0.05       
C        C      0.166100000000     0.778300000000     0.976650000000     0.05       
C        C      0.166200000000     0.791700000000     0.745300000000     0.05       
C        C      0.207133333333     0.812933333333     0.740350000000     0.05       
C        C      0.125333333333     0.812400000000     0.754750000000     0.05       
C        C      0.166233333333     0.746533333333     0.740550000000     0.05       
C        C      0.015066666667     0.869100000000     0.617800000000     0.05       
C        C      0.305300000000     0.883033333333     0.630000000000     0.05       
C        C      0.300400000000     0.906400000000     0.665800000000     0.05       
C        C      0.005266666667     0.915866666667     0.690200000000     0.05       
C        C      0.047666666667     0.900533333333     0.679400000000     0.05       
C        C      0.053033333333     0.877200000000     0.643500000000     0.05       
C        C      0.023033333333     0.848833333333     0.576000000000     0.05       
C        C      0.000566666667     0.944966666667     0.726650000000     0.05       
C        C      0.000466666667     0.958366666667     0.995300000000     0.05       
C        C      0.292866666667     0.979600000000     0.990350000000     0.05       
C        C      0.041333333333     0.979066666667     0.504750000000     0.05       
C        C      0.000433333333     0.913200000000     0.990550000000     0.05       
C        C      0.181733333333     0.964233333333     0.632200000000     0.05       
C        C      0.138633333333     0.950300000000     0.620000000000     0.05       
C        C      0.133733333333     0.926933333333     0.584200000000     0.05       
C        C      0.171933333333     0.917466666667     0.559800000000     0.05       
C        C      0.214333333333     0.932800000000     0.570600000000     0.05       
C        C      0.219700000000     0.956133333333     0.606500000000     0.05       
C        C      0.189700000000     0.984500000000     0.674000000000     0.05       
C        C      0.167233333333     0.888366666667     0.523350000000     0.05       
C        C      0.167133333333     0.874966666667     0.754700000000     0.05       
C        C      0.126200000000     0.853733333333     0.759650000000     0.05       
C        C      0.208000000000     0.854266666667     0.745250000000     0.05       
C        C      0.167100000000     0.920133333333     0.759450000000     0.05       
C        C      0.651600000000     0.130900000000     0.382200000000     0.05       
C        C      0.361366666667     0.116966666667     0.370000000000     0.05       
C        C      0.366266666667     0.093600000000     0.334200000000     0.05       
C        C      0.661400000000     0.084133333333     0.309800000000     0.05       
C        C      0.619000000000     0.099466666667     0.320600000000     0.05       
C        C      0.613633333333     0.122800000000     0.356500000000     0.05       
C        C      0.643633333333     0.151166666667     0.424000000000     0.05       
C        C      0.666100000000     0.055033333333     0.273350000000     0.05       
C        C      0.666200000000     0.041633333333     0.004700000000     0.05       
C        C      0.373800000000     0.020400000000     0.009650000000     0.05       
C        C      0.625333333333     0.020933333333     0.495250000000     0.05       
C        C      0.666233333333     0.086800000000     0.009450000000     0.05       
C        C      0.484933333333     0.035766666667     0.367800000000     0.05       
C        C      0.528033333333     0.049700000000     0.380000000000     0.05       
C        C      0.532933333333     0.073066666667     0.415800000000     0.05       
C        C      0.494733333333     0.082533333333     0.440200000000     0.05       
C        C      0.452333333333     0.067200000000     0.429400000000     0.05       
C        C      0.446966666667     0.043866666667     0.393500000000     0.05       
C        C      0.476966666667     0.015500000000     0.326000000000     0.05       
C        C      0.499433333333     0.111633333333     0.476650000000     0.05       
C        C      0.499533333333     0.125033333333     0.245300000000     0.05       
C        C      0.540466666667     0.146266666667     0.240350000000     0.05       
C        C      0.458666666667     0.145733333333     0.254750000000     0.05       
C        C      0.499566666667     0.079866666667     0.240550000000     0.05       
C        C      0.348400000000     0.202433333333     0.117800000000     0.05       
C        C      0.638633333333     0.216366666667     0.130000000000     0.05       
C        C      0.633733333333     0.239733333333     0.165800000000     0.05       
C        C      0.338600000000     0.249200000000     0.190200000000     0.05       
C        C      0.381000000000     0.233866666667     0.179400000000     0.05       
C        C      0.386366666667     0.210533333333     0.143500000000     0.05       
C        C      0.356366666667     0.182166666667     0.076000000000     0.05       
C        C      0.333900000000     0.278300000000     0.226650000000     0.05       
C        C      0.333800000000     0.291700000000     0.495300000000     0.05       
C        C      0.626200000000     0.312933333333     0.490350000000     0.05       
C        C      0.374666666667     0.312400000000     0.004750000000     0.05       
C        C      0.333766666667     0.246533333333     0.490550000000     0.05       
C        C      0.515066666667     0.297566666667     0.132200000000     0.05       
C        C      0.471966666667     0.283633333333     0.120000000000     0.05       
C        C      0.467066666667     0.260266666667     0.084200000000     0.05       
C        C      0.505266666667     0.250800000000     0.059800000000     0.05       
C        C      0.547666666667     0.266133333333     0.070600000000     0.05       
C        C      0.553033333333     0.289466666667     0.106500000000     0.05       
C        C      0.523033333333     0.317833333333     0.174000000000     0.05       
C        C      0.500566666667     0.221700000000     0.023350000000     0.05       
C        C      0.500466666667     0.208300000000     0.254700000000     0.05       
C        C      0.459533333333     0.187066666667     0.259650000000     0.05       
C        C      0.541333333333     0.187600000000     0.245250000000     0.05       
C        C      0.500433333333     0.253466666667     0.259450000000     0.05       
C        C      0.651600000000     0.130900000000     0.882200000000     0.05       
C        C      0.361366666667     0.116966666667     0.870000000000     0.05       
C        C      0.366266666667     0.093600000000     0.834200000000     0.05       
C        C      0.661400000000     0.084133333333     0.809800000000     0.05       
C        C      0.619000000000     0.099466666667     0.820600000000     0.05       
C        C      0.613633333333     0.122800000000     0.856500000000     0.05       
C        C      0.643633333333     0.151166666667     0.924000000000     0.05       
C        C      0.666100000000     0.055033333333     0.773350000000     0.05       
C        C      0.666200000000     0.041633333333     0.504700000000     0.05       
C        C      0.373800000000     0.020400000000     0.509650000000     0.05       
C        C      0.625333333333     0.020933333333     0.995250000000     0.05       
C        C      0.666233333333     0.086800000000     0.509450000000     0.05       
C        C      0.484933333333     0.035766666667     0.867800000000     0.05       
C        C      0.528033333333     0.049700000000     0.880000000000     0.05       
C        C      0.532933333333     0.073066666667     0.915800000000     0.05       
C        C      0.494733333333     0.082533333333     0.940200000000     0.05       
C        C      0.452333333333     0.067200000000     0.929400000000     0.05       
C        C      0.446966666667     0.043866666667     0.893500000000     0.05       
C        C      0.476966666667     0.015500000000     0.826000000000     0.05       
C        C      0.499433333333     0.111633333333     0.976650000000     0.05       
C        C      0.499533333333     0.125033333333     0.745300000000     0.05       
C        C      0.540466666667     0.146266666667     0.740350000000     0.05       
C        C      0.458666666667     0.145733333333     0.754750000000     0.05       
C        C      0.499566666667     0.079866666667     0.740550000000     0.05       
C        C      0.348400000000     0.202433333333     0.617800000000     0.05       
C        C      0.638633333333     0.216366666667     0.630000000000     0.05       
C        C      0.633733333333     0.239733333333     0.665800000000     0.05       
C        C      0.338600000000     0.249200000000     0.690200000000     0.05       
C        C      0.381000000000     0.233866666667     0.679400000000     0.05       
C        C      0.386366666667     0.210533333333     0.643500000000     0.05       
C        C      0.356366666667     0.182166666667     0.576000000000     0.05       
C        C      0.333900000000     0.278300000000     0.726650000000     0.05       
C        C      0.333800000000     0.291700000000     0.995300000000     0.05       
C        C      0.626200000000     0.312933333333     0.990350000000     0.05       
C        C      0.374666666667     0.312400000000     0.504750000000     0.05       
C        C      0.333766666667     0.246533333333     0.990550000000     0.05       
C        C      0.515066666667     0.297566666667     0.632200000000     0.05       
C        C      0.471966666667     0.283633333333     0.620000000000     0.05       
C        C      0.467066666667     0.260266666667     0.584200000000     0.05       
C        C      0.505266666667     0.250800000000     0.559800000000     0.05       
C        C      0.547666666667     0.266133333333     0.570600000000     0.05       
C        C      0.553033333333     0.289466666667     0.606500000000     0.05       
C        C      0.523033333333     0.317833333333     0.674000000000     0.05       
C        C      0.500566666667     0.221700000000     0.523350000000     0.05       
C        C      0.500466666667     0.208300000000     0.754700000000     0.05       
C        C      0.459533333333     0.187066666667     0.759650000000     0.05       
C        C      0.541333333333     0.187600000000     0.745250000000     0.05       
C        C      0.500433333333     0.253466666667     0.759450000000     0.05       
C        C      0.651600000000     0.464233333333     0.382200000000     0.05       
C        C      0.361366666667     0.450300000000     0.370000000000     0.05       
C        C      0.366266666667     0.426933333333     0.334200000000     0.05       
C        C      0.661400000000     0.417466666667     0.309800000000     0.05       
C        C      0.619000000000     0.432800000000     0.320600000000     0.05       
C        C      0.613633333333     0.456133333333     0.356500000000     0.05       
C        C      0.643633333333     0.484500000000     0.424000000000     0.05       
C        C      0.666100000000     0.388366666667     0.273350000000     0.05       
C        C      0.666200000000     0.374966666667     0.004700000000     0.05       
C        C      0.373800000000     0.353733333333     0.009650000000     0.05       
C        C      0.625333333333     0.354266666667     0.495250000000     0.05       
C        C      0.666233333333     0.420133333333     0.009450000000     0.05       
C        C      0.484933333333     0.369100000000     0.367800000000     0.05       
C        C      0.528033333333     0.383033333333     0.380000000000     0.05       
C        C      0.532933333333     0.406400000000     0.415800000000     0.05       
C        C      0.494733333333     0.415866666667     0.440200000000     0.05       
C        C      0.452333333333     0.400533333333     0.429400000000     0.05       
C        C      0.446966666667     0.377200000000     0.393500000000     0.05       
C        C      0.476966666667     0.348833333333     0.326000000000     0.05       
C        C      0.499433333333     0.444966666667     0.476650000000     0.05       
C        C      0.499533333333     0.458366666667     0.245300000000     0.05       
C        C      0.540466666667     0.479600000000     0.240350000000     0.05       
C        C      0.458666666667     0.479066666667     0.254750000000     0.05       
C        C      0.499566666667     0.413200000000     0.240550000000     0.05       
C        C      0.348400000000     0.535766666667     0.117800000000     0.05       
C        C      0.638633333333     0.549700000000     0.130000000000     0.05       
C        C      0.633733333333     0.573066666667     0.165800000000     0.05       
C        C      0.338600000000     0.582533333333     0.190200000000     0.05       
C        C      0.381000000000     0.567200000000     0.179400000000     0.05       
C        C      0.386366666667     0.543866666667     0.143500000000     0.05       
C        C      0.356366666667     0.515500000000     0.076000000000     0.05       
C        C      0.333900000000     0.611633333333     0.226650000000     0.05       
C        C      0.333800000000     0.625033333333     0.495300000000     0.05       
C        C      0.626200000000     0.646266666667     0.490350000000     0.05       
C        C      0.374666666667     0.645733333333     0.004750000000     0.05       
C        C      0.333766666667     0.579866666667     0.490550000000     0.05       
C        C      0.515066666667     0.630900000000     0.132200000000     0.05       
C        C      0.471966666667     0.616966666667     0.120000000000     0.05       
C        C      0.467066666667     0.593600000000     0.084200000000     0.05       
C        C      0.505266666667     0.584133333333     0.059800000000     0.05       
C        C      0.547666666667     0.599466666667     0.070600000000     0.05       
C        C      0.553033333333     0.622800000000     0.106500000000     0.05       
C        C      0.523033333333     0.651166666667     0.174000000000     0.05       
C        C      0.500566666667     0.555033333333     0.023350000000     0.05       
C        C      0.500466666667     0.541633333333     0.254700000000     0.05       
C        C      0.459533333333     0.520400000000     0.259650000000     0.05       
C        C      0.541333333333     0.520933333333     0.245250000000     0.05       
C        C      0.500433333333     0.586800000000     0.259450000000     0.05       
C        C      0.651600000000     0.464233333333     0.882200000000     0.05       
C        C      0.361366666667     0.450300000000     0.870000000000     0.05       
C        C      0.366266666667     0.426933333333     0.834200000000     0.05       
C        C      0.661400000000     0.417466666667     0.809800000000     0.05       
C        C      0.619000000000     0.432800000000     0.820600000000     0.05       
C        C      0.613633333333     0.456133333333     0.856500000000     0.05       
C        C      0.643633333333     0.484500000000     0.924000000000     0.05       
C        C      0.666100000000     0.388366666667     0.773350000000     0.05       
C        C      0.666200000000     0.374966666667     0.504700000000     0.05       
C        C      0.373800000000     0.353733333333     0.509650000000     0.05       
C        C      0.625333333333     0.354266666667     0.995250000000     0.05       
C        C      0.666233333333     0.420133333333     0.509450000000     0.05       
C        C      0.484933333333     0.369100000000     0.867800000000     0.05       
C        C      0.528033333333     0.383033333333     0.880000000000     0.05       
C        C      0.532933333333     0.406400000000     0.915800000000     0.05       
C        C      0.494733333333     0.415866666667     0.940200000000     0.05       
C        C      0.452333333333     0.400533333333     0.929400000000     0.05       
C        C      0.446966666667     0.377200000000     0.893500000000     0.05       
C        C      0.476966666667     0.348833333333     0.826000000000     0.05       
C        C      0.499433333333     0.444966666667     0.976650000000     0.05       
C        C      0.499533333333     0.458366666667     0.745300000000     0.05       
C        C      0.540466666667     0.479600000000     0.740350000000     0.05       
C        C      0.458666666667     0.479066666667     0.754750000000     0.05       
C        C      0.499566666667     0.413200000000     0.740550000000     0.05       
C        C      0.348400000000     0.535766666667     0.617800000000     0.05       
C        C      0.638633333333     0.549700000000     0.630000000000     0.05       
C        C      0.633733333333     0.573066666667     0.665800000000     0.05       
C        C      0.338600000000     0.582533333333     0.690200000000     0.05       
C        C      0.381000000000     0.567200000000     0.679400000000     0.05       
C        C      0.386366666667     0.543866666667     0.643500000000     0.05       
C        C      0.356366666667     0.515500000000     0.576000000000     0.05       
C        C      0.333900000000     0.611633333333     0.726650000000     0.05       
C        C      0.333800000000     0.625033333333     0.995300000000     0.05       
C        C      0.626200000000     0.646266666667     0.990350000000     0.05       
C        C      0.374666666667     0.645733333333     0.504750000000     0.05       
C        C      0.333766666667     0.579866666667     0.990550000000     0.05       
C        C      0.515066666667     0.630900000000     0.632200000000     0.05       
C        C      0.471966666667     0.616966666667     0.620000000000     0.05       
C        C      0.467066666667     0.593600000000     0.584200000000     0.05       
C        C      0.505266666667     0.584133333333     0.559800000000     0.05       
C        C      0.547666666667     0.599466666667     0.570600000000     0.05       
C        C      0.553033333333     0.622800000000     0.606500000000     0.05       
C        C      0.523033333333     0.651166666667     0.674000000000     0.05       
C        C      0.500566666667     0.555033333333     0.523350000000     0.05       
C        C      0.500466666667     0.541633333333     0.754700000000     0.05       
C        C      0.459533333333     0.520400000000     0.759650000000     0.05       
C        C      0.541333333333     0.520933333333     0.745250000000     0.05       
C        C      0.500433333333     0.586800000000     0.759450000000     0.05       
C        C      0.651600000000     0.797566666667     0.382200000000     0.05       
C        C      0.361366666667     0.783633333333     0.370000000000     0.05       
C        C      0.366266666667     0.760266666667     0.334200000000     0.05       
C        C      0.661400000000     0.750800000000     0.309800000000     0.05       
C        C      0.619000000000     0.766133333333     0.320600000000     0.05       
C        C      0.613633333333     0.789466666667     0.356500000000     0.05       
C        C      0.643633333333     0.817833333333     0.424000000000     0.05       
C        C      0.666100000000     0.721700000000     0.273350000000     0.05       
C        C      0.666200000000     0.708300000000     0.004700000000     0.05       
C        C      0.373800000000     0.687066666667     0.009650000000     0.05       
C        C      0.625333333333     0.687600000000     0.495250000000     0.05       
C        C      0.666233333333     0.753466666667     0.009450000000     0.05       
C        C      0.484933333333     0.702433333333     0.367800000000     0.05       
C        C      0.528033333333     0.716366666667     0.380000000000     0.05       
C        C      0.532933333333     0.739733333333     0.415800000000     0.05       
C        C      0.494733333333     0.749200000000     0.440200000000     0.05       
C        C      0.452333333333     0.733866666667     0.429400000000     0.05       
C        C      0.446966666667     0.710533333333     0.393500000000     0.05       
C        C      0.476966666667     0.682166666667     0.326000000000     0.05       
C        C      0.499433333333     0.778300000000     0.476650000000     0.05       
C        C      0.499533333333     0.791700000000     0.245300000000     0.05       
C        C      0.540466666667     0.812933333333     0.240350000000     0.05       
C        C      0.458666666667     0.812400000000     0.254750000000     0.05       
C        C      0.499566666667     0.746533333333     0.240550000000     0.05       
C        C      0.348400000000     0.869100000000     0.117800000000     0.05       
C        C      0.638633333333     0.883033333333     0.130000000000     0.05       
C        C      0.633733333333     0.906400000000     0.165800000000     0.05       
C        C      0.338600000000     0.915866666667     0.190200000000     0.05       
C        C      0.381000000000     0.900533333333     0.179400000000     0.05       
C        C      0.386366666667     0.877200000000     0.143500000000     0.05       
C        C      0.356366666667     0.848833333333     0.076000000000     0.05       
C        C      0.333900000000     0.944966666667     0.226650000000     0.05       
C        C      0.333800000000     0.958366666667     0.495300000000     0.05       
C        C      0.626200000000     0.979600000000     0.490350000000     0.05       
C        C      0.374666666667     0.979066666667     0.004750000000     0.05       
C        C      0.333766666667     0.913200000000     0.490550000000     0.05       
C        C      0.515066666667     0.964233333333     0.132200000000     0.05       
C        C      0.471966666667     0.950300000000     0.120000000000     0.05       
C        C      0.467066666667     0.926933333333     0.084200000000     0.05       
C        C      0.505266666667     0.917466666667     0.059800000000     0.05       
C        C      0.547666666667     0.932800000000     0.070600000000     0.05       
C        C      0.553033333333     0.956133333333     0.106500000000     0.05       
C        C      0.523033333333     0.984500000000     0.174000000000     0.05       
C        C      0.500566666667     0.888366666667     0.023350000000     0.05       
C        C      0.500466666667     0.874966666667     0.254700000000     0.05       
C        C      0.459533333333     0.853733333333     0.259650000000     0.05       
C        C      0.541333333333     0.854266666667     0.245250000000     0.05       
C        C      0.500433333333     0.920133333333     0.259450000000     0.05       
C        C      0.651600000000     0.797566666667     0.882200000000     0.05       
C        C      0.361366666667     0.783633333333     0.870000000000     0.05       
C        C      0.366266666667     0.760266666667     0.834200000000     0.05       
C        C      0.661400000000     0.750800000000     0.809800000000     0.05       
C        C      0.619000000000     0.766133333333     0.820600000000     0.05       
C        C      0.613633333333     0.789466666667     0.856500000000     0.05       
C        C      0.643633333333     0.817833333333     0.924000000000     0.05       
C        C      0.666100000000     0.721700000000     0.773350000000     0.05       
C        C      0.666200000000     0.708300000000     0.504700000000     0.05       
C        C      0.373800000000     0.687066666667     0.509650000000     0.05       
C        C      0.625333333333     0.687600000000     0.995250000000     0.05       
C        C      0.666233333333     0.753466666667     0.509450000000     0.05       
C        C      0.484933333333     0.702433333333     0.867800000000     0.05       
C        C      0.528033333333     0.716366666667     0.880000000000     0.05       
C        C      0.532933333333     0.739733333333     0.915800000000     0.05       
C        C      0.494733333333     0.749200000000     0.940200000000     0.05       
C        C      0.452333333333     0.733866666667     0.929400000000     0.05       
C        C      0.446966666667     0.710533333333     0.893500000000     0.05       
C        C      0.476966666667     0.682166666667     0.826000000000     0.05       
C        C      0.499433333333     0.778300000000     0.976650000000     0.05       
C        C      0.499533333333     0.791700000000     0.745300000000     0.05       
C        C      0.540466666667     0.812933333333     0.740350000000     0.05       
C        C      0.458666666667     0.812400000000     0.754750000000     0.05       
C        C      0.499566666667     0.746533333333     0.740550000000     0.05       
C        C      0.348400000000     0.869100000000     0.617800000000     0.05       
C        C      0.638633333333     0.883033333333     0.630000000000     0.05       
C        C      0.633733333333     0.906400000000     0.665800000000     0.05       
C        C      0.338600000000     0.915866666667     0.690200000000     0.05       
C        C      0.381000000000     0.900533333333     0.679400000000     0.05       
C        C      0.386366666667     0.877200000000     0.643500000000     0.05       
C        C      0.356366666667     0.848833333333     0.576000000000     0.05       
C        C      0.333900000000     0.944966666667     0.726650000000     0.05       
C        C      0.333800000000     0.958366666667     0.995300000000     0.05       
C        C      0.626200000000     0.979600000000     0.990350000000     0.05       
C        C      0.374666666667     0.979066666667     0.504750000000     0.05       
C        C      0.333766666667     0.913200000000     0.990550000000     0.05       
C        C      0.515066666667     0.964233333333     0.632200000000     0.05       
C        C      0.471966666667     0.950300000000     0.620000000000     0.05       
C        C      0.467066666667     0.926933333333     0.584200000000     0.05       
C        C      0.505266666667     0.917466666667     0.559800000000     0.05       
C        C      0.547666666667     0.932800000000     0.570600000000     0.05       
C        C      0.553033333333     0.956133333333     0.606500000000     0.05       
C        C      0.523033333333     0.984500000000     0.674000000000     0.05       
C        C      0.500566666667     0.888366666667     0.523350000000     0.05       
C        C      0.500466666667     0.874966666667     0.754700000000     0.05       
C        C      0.459533333333     0.853733333333     0.759650000000     0.05       
C        C      0.541333333333     0.854266666667     0.745250000000     0.05       
C        C      0.500433333333     0.920133333333     0.759450000000     0.05       
C        C      0.984933333333     0.130900000000     0.382200000000     0.05       
C        C      0.694700000000     0.116966666667     0.370000000000     0.05       
C        C      0.699600000000     0.093600000000     0.334200000000     0.05       
C        C      0.994733333333     0.084133333333     0.309800000000     0.05       
C        C      0.952333333333     0.099466666667     0.320600000000     0.05       
C        C      0.946966666667     0.122800000000     0.356500000000     0.05       
C        C      0.976966666667     0.151166666667     0.424000000000     0.05       
C        C      0.999433333333     0.055033333333     0.273350000000     0.05       
C        C      0.999533333333     0.041633333333     0.004700000000     0.05       
C        C      0.707133333333     0.020400000000     0.009650000000     0.05       
C        C      0.958666666667     0.020933333333     0.495250000000     0.05       
C        C      0.999566666667     0.086800000000     0.009450000000     0.05       
C        C      0.818266666667     0.035766666667     0.367800000000     0.05       
C        C      0.861366666667     0.049700000000     0.380000000000     0.05       
C        C      0.866266666667     0.073066666667     0.415800000000     0.05       
C        C      0.828066666667     0.082533333333     0.440200000000     0.05       
C        C      0.785666666667     0.067200000000     0.429400000000     0.05       
C        C      0.780300000000     0.043866666667     0.393500000000     0.05       
C        C      0.810300000000     0.015500000000     0.326000000000     0.05       
C        C      0.832766666667     0.111633333333     0.476650000000     0.05       
C        C      0.832866666667     0.125033333333     0.245300000000     0.05       
C        C      0.873800000000     0.146266666667     0.240350000000     0.05       
C        C      0.792000000000     0.145733333333     0.254750000000     0.05       
C        C      0.832900000000     0.079866666667     0.240550000000     0.05       
C        C      0.681733333333     0.202433333333     0.117800000000     0.05       
C        C      0.971966666667     0.216366666667     0.130000000000     0.05       
C        C      0.967066666667     0.239733333333     0.165800000000     0.05       
C        C      0.671933333333     0.249200000000     0.190200000000     0.05       
C        C      0.714333333333     0.233866666667     0.179400000000     0.05       
C        C      0.719700000000     0.210533333333     0.143500000000     0.05       
C        C      0.689700000000     0.182166666667     0.076000000000     0.05       
C        C      0.667233333333     0.278300000000     0.226650000000     0.05       
C        C      0.667133333333     0.291700000000     0.495300000000     0.05       
C        C      0.959533333333     0.312933333333     0.490350000000     0.05       
C        C      0.708000000000     0.312400000000     0.004750000000     0.05       
C        C      0.667100000000     0.246533333333     0.490550000000     0.05       
C        C      0.848400000000     0.297566666667     0.132200000000     0.05       
C        C      0.805300000000     0.283633333333     0.120000000000     0.05       
C        C      0.800400000000     0.260266666667     0.084200000000     0.05       
C        C      0.838600000000     0.250800000000     0.059800000000     0.05       
C        C      0.881000000000     0.266133333333     0.070600000000     0.05       
C        C      0.886366666667     0.289466666667     0.106500000000     0.05       
C        C      0.856366666667     0.317833333333     0.174000000000     0.05       
C        C      0.833900000000     0.221700000000     0.023350000000     0.05       
C        C      0.833800000000     0.208300000000     0.254700000000     0.05       
C        C      0.792866666667     0.187066666667     0.259650000000     0.05       
C        C      0.874666666667     0.187600000000     0.245250000000     0.05       
C        C      0.833766666667     0.253466666667     0.259450000000     0.05       
C        C      0.984933333333     0.130900000000     0.882200000000     0.05       
C        C      0.694700000000     0.116966666667     0.870000000000     0.05       
C        C      0.699600000000     0.093600000000     0.834200000000     0.05       
C        C      0.994733333333     0.084133333333     0.809800000000     0.05       
C        C      0.952333333333     0.099466666667     0.820600000000     0.05       
C        C      0.946966666667     0.122800000000     0.856500000000     0.05       
C        C      0.976966666667     0.151166666667     0.924000000000     0.05       
C        C      0.999433333333     0.055033333333     0.773350000000     0.05       
C        C      0.999533333333     0.041633333333     0.504700000000     0.05       
C        C      0.707133333333     0.020400000000     0.509650000000     0.05       
C        C      0.958666666667     0.020933333333     0.995250000000     0.05       
C        C      0.999566666667     0.086800000000     0.509450000000     0.05       
C        C      0.818266666667     0.035766666667     0.867800000000     0.05       
C        C      0.861366666667     0.049700000000     0.880000000000     0.05       
C        C      0.866266666667     0.073066666667     0.915800000000     0.05       
C        C      0.828066666667     0.082533333333     0.940200000000     0.05       
C        C      0.785666666667     0.067200000000     0.929400000000     0.05       
C        C      0.780300000000     0.043866666667     0.893500000000     0.05       
C        C      0.810300000000     0.015500000000     0.826000000000     0.05       
C        C      0.832766666667     0.111633333333     0.976650000000     0.05       
C        C      0.832866666667     0.125033333333     0.745300000000     0.05       
C        C      0.873800000000     0.146266666667     0.740350000000     0.05       
C        C      0.792000000000     0.145733333333     0.754750000000     0.05       
C        C      0.832900000000     0.079866666667     0.740550000000     0.05       
C        C      0.681733333333     0.202433333333     0.617800000000     0.05       
C        C      0.971966666667     0.216366666667     0.630000000000     0.05       
C        C      0.967066666667     0.239733333333     0.665800000000     0.05       
C        C      0.671933333333     0.249200000000     0.690200000000     0.05       
C        C      0.714333333333     0.233866666667     0.679400000000     0.05       
C        C      0.719700000000     0.210533333333     0.643500000000     0.05       
C        C      0.689700000000     0.182166666667     0.576000000000     0.05       
C        C      0.667233333333     0.278300000000     0.726650000000     0.05       
C        C      0.667133333333     0.291700000000     0.995300000000     0.05       
C        C      0.959533333333     0.312933333333     0.990350000000     0.05       
C        C      0.708000000000     0.312400000000     0.504750000000     0.05       
C        C      0.667100000000     0.246533333333     0.990550000000     0.05       
C        C      0.848400000000     0.297566666667     0.632200000000     0.05       
C        C      0.805300000000     0.283633333333     0.620000000000     0.05       
C        C      0.800400000000     0.260266666667     0.584200000000     0.05       
C        C      0.838600000000     0.250800000000     0.559800000000     0.05       
C        C      0.881000000000     0.266133333333     0.570600000000     0.05       
C        C      0.886366666667     0.289466666667     0.606500000000     0.05       
C        C      0.856366666667     0.317833333333     0.674000000000     0.05       
C        C      0.833900000000     0.221700000000     0.523350000000     0.05       
C        C      0.833800000000     0.208300000000     0.754700000000     0.05       
C        C      0.792866666667     0.187066666667     0.759650000000     0.05       
C        C      0.874666666667     0.187600000000     0.745250000000     0.05       
C        C      0.833766666667     0.253466666667     0.759450000000     0.05       
C        C      0.984933333333     0.464233333333     0.382200000000     0.05       
C        C      0.694700000000     0.450300000000     0.370000000000     0.05       
C        C      0.699600000000     0.426933333333     0.334200000000     0.05       
C        C      0.994733333333     0.417466666667     0.309800000000     0.05       
C        C      0.952333333333     0.432800000000     0.320600000000     0.05       
C        C      0.946966666667     0.456133333333     0.356500000000     0.05       
C        C      0.976966666667     0.484500000000     0.424000000000     0.05       
C        C      0.999433333333     0.388366666667     0.273350000000     0.05       
C        C      0.999533333333     0.374966666667     0.004700000000     0.05       
C        C      0.707133333333     0.353733333333     0.009650000000     0.05       
C        C      0.958666666667     0.354266666667     0.495250000000     0.05       
C        C      0.999566666667     0.420133333333     0.009450000000     0.05       
C        C      0.818266666667     0.369100000000     0.367800000000     0.05       
C        C      0.861366666667     0.383033333333     0.380000000000     0.05       
C        C      0.866266666667     0.406400000000     0.415800000000     0.05       
C        C      0.828066666667     0.415866666667     0.440200000000     0.05       
C        C      0.785666666667     0.400533333333     0.429400000000     0.05       
C        C      0.780300000000     0.377200000000     0.393500000000     0.05       
C        C      0.810300000000     0.348833333333     0.326000000000     0.05       
C        C      0.832766666667     0.444966666667     0.476650000000     0.05       
C        C      0.832866666667     0.458366666667     0.245300000000     0.05       
C        C      0.873800000000     0.479600000000     0.240350000000     0.05       
C        C      0.792000000000     0.479066666667     0.254750000000     0.05       
C        C      0.832900000000     0.413200000000     0.240550000000     0.05       
C        C      0.681733333333     0.535766666667     0.117800000000     0.05       
C        C      0.971966666667     0.549700000000     0.130000000000     0.05       
C        C      0.967066666667     0.573066666667     0.165800000000     0.05       
C        C      0.671933333333     0.582533333333     0.190200000000     0.05       
C        C      0.714333333333     0.567200000000     0.179400000000     0.05       
C        C      0.719700000000     0.543866666667     0.143500000000     0.05       
C        C      0.689700000000     0.515500000000     0.076000000000     0.05       
C        C      0.667233333333     0.611633333333     0.226650000000     0.05       
C        C      0.667133333333     0.625033333333     0.495300000000     0.05       
C        C      0.959533333333     0.646266666667     0.490350000000     0.05       
C        C      0.708000000000     0.645733333333     0.004750000000     0.05       
C        C      0.667100000000     0.579866666667     0.490550000000     0.05       
C        C      0.848400000000     0.630900000000     0.132200000000     0.05       
C        C      0.805300000000     0.616966666667     0.120000000000     0.05       
C        C      0.800400000000     0.593600000000     0.084200000000     0.05       
C        C      0.838600000000     0.584133333333     0.059800000000     0.05       
C        C      0.881000000000     0.599466666667     0.070600000000     0.05       
C        C      0.886366666667     0.622800000000     0.106500000000     0.05       
C        C      0.856366666667     0.651166666667     0.174000000000     0.05       
C        C      0.833900000000     0.555033333333     0.023350000000     0.05       
C        C      0.833800000000     0.541633333333     0.254700000000     0.05       
C        C      0.792866666667     0.520400000000     0.259650000000     0.05       
C        C      0.874666666667     0.520933333333     0.245250000000     0.05       
C        C      0.833766666667     0.586800000000     0.259450000000     0.05       
C        C      0.984933333333     0.464233333333     0.882200000000     0.05       
C        C      0.694700000000     0.450300000000     0.870000000000     0.05       
C        C      0.699600000000     0.426933333333     0.834200000000     0.05       
C        C      0.994733333333     0.417466666667     0.809800000000     0.05       
C        C      0.952333333333     0.432800000000     0.820600000000     0.05       
C        C      0.946966666667     0.456133333333     0.856500000000     0.05       
C        C      0.976966666667     0.484500000000     0.924000000000     0.05       
C        C      0.999433333333     0.388366666667     0.773350000000     0.05       
C        C      0.999533333333     0.374966666667     0.504700000000     0.05       
C        C      0.707133333333     0.353733333333     0.509650000000     0.05       
C        C      0.958666666667     0.354266666667     0.995250000000     0.05       
C        C      0.999566666667     0.420133333333     0.509450000000     0.05       
C        C      0.818266666667     0.369100000000     0.867800000000     0.05       
C        C      0.861366666667     0.383033333333     0.880000000000     0.05       
C        C      0.866266666667     0.406400000000     0.915800000000     0.05       
C        C      0.828066666667     0.415866666667     0.940200000000     0.05       
C        C      0.785666666667     0.400533333333     0.929400000000     0.05       
C        C      0.780300000000     0.377200000000     0.893500000000     0.05       
C        C      0.810300000000     0.348833333333     0.826000000000     0.05       
C        C      0.832766666667     0.444966666667     0.976650000000     0.05       
C        C      0.832866666667     0.458366666667     0.745300000000     0.05       
C        C      0.873800000000     0.479600000000     0.740350000000     0.05       
C        C      0.792000000000     0.479066666667     0.754750000000     0.05       
C        C      0.832900000000     0.413200000000     0.740550000000     0.05       
C        C      0.681733333333     0.535766666667     0.617800000000     0.05       
C        C      0.971966666667     0.549700000000     0.630000000000     0.05       
C        C      0.967066666667     0.573066666667     0.665800000000     0.05       
C        C      0.671933333333     0.582533333333     0.690200000000     0.05       
C        C      0.714333333333     0.567200000000     0.679400000000     0.05       
C        C      0.719700000000     0.543866666667     0.643500000000     0.05       
C        C      0.689700000000     0.515500000000     0.576000000000     0.05       
C        C      0.667233333333     0.611633333333     0.726650000000     0.05       
C        C      0.667133333333     0.625033333333     0.995300000000     0.05       
C        C      0.959533333333     0.646266666667     0.990350000000     0.05       
C        C      0.708000000000     0.645733333333     0.504750000000     0.05       
C        C      0.667100000000     0.579866666667     0.990550000000     0.05       
C        C      0.848400000000     0.630900000000     0.632200000000     0.05       
C        C      0.805300000000     0.616966666667     0.620000000000     0.05       
C        C      0.800400000000     0.593600000000     0.584200000000     0.05       
C        C      0.838600000000     0.584133333333     0.559800000000     0.05       
C        C      0.881000000000     0.599466666667     0.570600000000     0.05       
C        C      0.886366666667     0.622800000000     0.606500000000     0.05       
C        C      0.856366666667     0.651166666667     0.674000000000     0.05       
C        C      0.833900000000     0.555033333333     0.523350000000     0.05       
C        C      0.833800000000     0.541633333333     0.754700000000     0.05       
C        C      0.792866666667     0.520400000000     0.759650000000     0.05       
C        C      0.874666666667     0.520933333333     0.745250000000     0.05       
C        C      0.833766666667     0.586800000000     0.759450000000     0.05       
C        C      0.984933333333     0.797566666667     0.382200000000     0.05       
C        C      0.694700000000     0.783633333333     0.370000000000     0.05       
C        C      0.699600000000     0.760266666667     0.334200000000     0.05       
C        C      0.994733333333     0.750800000000     0.309800000000     0.05       
C        C      0.952333333333     0.766133333333     0.320600000000     0.05       
C        C      0.946966666667     0.789466666667     0.356500000000     0.05       
C        C      0.976966666667     0.817833333333     0.424000000000     0.05       
C        C      0.999433333333     0.721700000000     0.273350000000     0.05       
C        C      0.999533333333     0.708300000000     0.004700000000     0.05       
C        C      0.707133333333     0.687066666667     0.009650000000     0.05       
C        C      0.958666666667     0.687600000000     0.495250000000     0.05       
C        C      0.999566666667     0.753466666667     0.009450000000     0.05       
C        C      0.818266666667     0.702433333333     0.367800000000     0.05       
C        C      0.861366666667     0.716366666667     0.380000000000     0.05       
C        C      0.866266666667     0.739733333333     0.415800000000     0.05       
C        C      0.828066666667     0.749200000000     0.440200000000     0.05       
C        C      0.785666666667     0.733866666667     0.429400000000     0.05       
C        C      0.780300000000     0.710533333333     0.393500000000     0.05       
C        C      0.810300000000     0.682166666667     0.326000000000     0.05       
C        C      0.832766666667     0.778300000000     0.476650000000     0.05       
C        C      0.832866666667     0.791700000000     0.245300000000     0.05       
C        C      0.873800000000     0.812933333333     0.240350000000     0.05       
C        C      0.792000000000     0.812400000000     0.254750000000     0.05       
C        C      0.832900000000     0.746533333333     0.240550000000     0.05       
C        C      0.681733333333     0.869100000000     0.117800000000     0.05       
C        C      0.971966666667     0.883033333333     0.130000000000     0.05       
C        C      0.967066666667     0.906400000000     0.165800000000     0.05       
C        C      0.671933333333     0.915866666667     0.190200000000     0.05       
C        C      0.714333333333     0.900533333333     0.179400000000     0.05       
C        C      0.719700000000     0.877200000000     0.143500000000     0.05       
C        C      0.689700000000     0.848833333333     0.076000000000     0.05       
C        C      0.667233333333     0.944966666667     0.226650000000     0.05       
C        C      0.667133333333     0.958366666667     0.495300000000     0.05       
C        C      0.959533333333     0.979600000000     0.490350000000     0.05       
C        C      0.708000000000     0.979066666667     0.004750000000     0.05       
C        C      0.667100000000     0.913200000000     0.490550000000     0.05       
C        C      0.848400000000     0.964233333333     0.132200000000     0.05       
C        C      0.805300000000     0.950300000000     0.120000000000     0.05       
C        C      0.800400000000     0.926933333333     0.084200000000     0.05       
C        C      0.838600000000     0.917466666667     0.059800000000     0.05       
C        C      0.881000000000     0.932800000000     0.070600000000     0.05       
C        C      0.886366666667     0.956133333333     0.106500000000     0.05       
C        C      0.856366666667     0.984500000000     0.174000000000     0.05       
C        C      0.833900000000     0.888366666667     0.023350000000     0.05       
C        C      0.833800000000     0.874966666667     0.254700000000     0.05       
C        C      0.792866666667     0.853733333333     0.259650000000     0.05       
C        C      0.874666666667     0.854266666667     0.245250000000     0.05       
C        C      0.833766666667     0.920133333333     0.259450000000     0.05       
C        C      0.984933333333     0.797566666667     0.882200000000     0.05       
C        C      0.694700000000     0.783633333333     0.870000000000     0.05       
C        C      0.699600000000     0.760266666667     0.834200000000     0.05       
C        C      0.994733333333     0.750800000000     0.809800000000     0.05       
C        C      0.952333333333     0.766133333333     0.820600000000     0.05       
C        C      0.946966666667     0.789466666667     0.856500000000     0.05       
C        C      0.976966666667     0.817833333333     0.924000000000     0.05       
C        C      0.999433333333     0.721700000000     0.773350000000     0.05       
C        C      0.999533333333     0.708300000000     0.504700000000     0.05       
C        C      0.707133333333     0.687066666667     0.509650000000     0.05       
C        C      0.958666666667     0.687600000000     0.995250000000     0.05       
C        C      0.999566666667     0.753466666667     0.509450000000     0.05       
C        C      0.818266666667     0.702433333333     0.867800000000     0.05       
C        C      0.861366666667     0.716366666667     0.880000000000     0.05       
C        C      0.866266666667     0.739733333333     0.915800000000     0.05       
C        C      0.828066666667     0.749200000000     0.940200000000     0.05       
C        C      0.785666666667     0.733866666667     0.929400000000     0.05       
C        C      0.780300000000     0.710533333333     0.893500000000     0.05       
C        C      0.810300000000     0.682166666667     0.826000000000     0.05       
C        C      0.832766666667     0.778300000000     0.976650000000     0.05       
C        C      0.832866666667     0.791700000000     0.745300000000     0.05       
C        C      0.873800000000     0.812933333333     0.740350000000     0.05       
C        C      0.792000000000     0.812400000000     0.754750000000     0.05       
C        C      0.832900000000     0.746533333333     0.740550000000     0.05       
C        C      0.681733333333     0.869100000000     0.617800000000     0.05       
C        C      0.971966666667     0.883033333333     0.630000000000     0.05       
C        C      0.967066666667     0.906400000000     0.665800000000     0.05       
C        C      0.671933333333     0.915866666667     0.690200000000     0.05       
C        C      0.714333333333     0.900533333333     0.679400000000     0.05       
C        C      0.719700000000     0.877200000000     0.643500000000     0.05       
C        C      0.689700000000     0.848833333333     0.576000000000     0.05       
C        C      0.667233333333     0.944966666667     0.726650000000     0.05       
C        C      0.667133333333     0.958366666667     0.995300000000     0.05       
C        C      0.959533333333     0.979600000000     0.990350000000     0.05       
C        C      0.708000000000     0.979066666667     0.504750000000     0.05       
C        C      0.667100000000     0.913200000000     0.990550000000     0.05       
C        C      0.848400000000     0.964233333333     0.632200000000     0.05       
C        C      0.805300000000     0.950300000000     0.620000000000     0.05       
C        C      0.800400000000     0.926933333333     0.584200000000     0.05       
C        C      0.838600000000     0.917466666667     0.559800000000     0.05       
C        C      0.881000000000     0.932800000000     0.570600000000     0.05       
C        C      0.886366666667     0.956133333333     0.606500000000     0.05       
C        C      0.856366666667     0.984500000000     0.674000000000     0.05       
C        C      0.833900000000     0.888366666667     0.523350000000     0.05       
C        C      0.833800000000     0.874966666667     0.754700000000     0.05       
C        C      0.792866666667     0.853733333333     0.759650000000     0.05       
C        C      0.874666666667     0.854266666667     0.745250000000     0.05       
C        C      0.833766666667     0.920133333333     0.759450000000     0.05       
Y        Y      0.263140000000     0.168293333333     0.004830000000     0.037      
Y        Y      0.096473333333     0.331706666667     0.245170000000     0.037      
Y        Y      0.070193333333     0.165040000000     0.495170000000     0.037      
Y        Y      0.236860000000     0.001626666667     0.254830000000     0.037      
Y        Y      0.263140000000     0.168293333333     0.504830000000     0.037      
Y        Y      0.096473333333     0.331706666667     0.745170000000     0.037      
Y        Y      0.070193333333     0.165040000000     0.995170000000     0.037      
Y        Y      0.236860000000     0.001626666667     0.754830000000     0.037      
Y        Y      0.263140000000     0.501626666667     0.004830000000     0.037      
Y        Y      0.096473333333     0.665040000000     0.245170000000     0.037      
Y        Y      0.070193333333     0.498373333333     0.495170000000     0.037      
Y        Y      0.236860000000     0.334960000000     0.254830000000     0.037      
Y        Y      0.263140000000     0.501626666667     0.504830000000     0.037      
Y        Y      0.096473333333     0.665040000000     0.745170000000     0.037      
Y        Y      0.070193333333     0.498373333333     0.995170000000     0.037      
Y        Y      0.236860000000     0.334960000000     0.754830000000     0.037      
Y        Y      0.263140000000     0.834960000000     0.004830000000     0.037      
Y        Y      0.096473333333     0.998373333333     0.245170000000     0.037      
Y        Y      0.070193333333     0.831706666667     0.495170000000     0.037      
Y        Y      0.236860000000     0.668293333333     0.254830000000     0.037      
Y        Y      0.263140000000     0.834960000000     0.504830000000     0.037      
Y        Y      0.096473333333     0.998373333333     0.745170000000     0.037      
Y        Y      0.070193333333     0.831706666667     0.995170000000     0.037      
Y        Y      0.236860000000     0.668293333333     0.754830000000     0.037      
Y        Y      0.596473333333     0.168293333333     0.004830000000     0.037      
Y        Y      0.429806666667     0.331706666667     0.245170000000     0.037      
Y        Y      0.403526666667     0.165040000000     0.495170000000     0.037      
Y        Y      0.570193333333     0.001626666667     0.254830000000     0.037      
Y        Y      0.596473333333     0.168293333333     0.504830000000     0.037      
Y        Y      0.429806666667     0.331706666667     0.745170000000     0.037      
Y        Y      0.403526666667     0.165040000000     0.995170000000     0.037      
Y        Y      0.570193333333     0.001626666667     0.754830000000     0.037      
Y        Y      0.596473333333     0.501626666667     0.004830000000     0.037      
Y        Y      0.429806666667     0.665040000000     0.245170000000     0.037      
Y        Y      0.403526666667     0.498373333333     0.495170000000     0.037      
Y        Y      0.570193333333     0.334960000000     0.254830000000     0.037      
Y        Y      0.596473333333     0.501626666667     0.504830000000     0.037      
Y        Y      0.429806666667     0.665040000000     0.745170000000     0.037      
Y        Y      0.403526666667     0.498373333333     0.995170000000     0.037      
Y        Y      0.570193333333     0.334960000000     0.754830000000     0.037      
Y        Y      0.596473333333     0.834960000000     0.004830000000     0.037      
Y        Y      0.429806666667     0.998373333333     0.245170000000     0.037      
Y        Y      0.403526666667     0.831706666667     0.495170000000     0.037      
Y        Y      0.570193333333     0.668293333333     0.254830000000     0.037      
Y        Y      0.596473333333     0.834960000000     0.504830000000     0.037      
Y        Y      0.429806666667     0.998373333333     0.745170000000     0.037      
Y        Y      0.403526666667     0.831706666667     0.995170000000     0.037      
Y        Y      0.570193333333     0.668293333333     0.754830000000     0.037      
Y        Y      0.929806666667     0.168293333333     0.004830000000     0.037      
Y        Y      0.763140000000     0.331706666667     0.245170000000     0.037      
Y        Y      0.736860000000     0.165040000000     0.495170000000     0.037      
Y        Y      0.903526666667     0.001626666667     0.254830000000     0.037      
Y        Y      0.929806666667     0.168293333333     0.504830000000     0.037      
Y        Y      0.763140000000     0.331706666667     0.745170000000     0.037      
Y        Y      0.736860000000     0.165040000000     0.995170000000     0.037      
Y        Y      0.903526666667     0.001626666667     0.754830000000     0.037      
Y        Y      0.929806666667     0.501626666667     0.004830000000     0.037      
Y        Y      0.763140000000     0.665040000000     0.245170000000     0.037      
Y        Y      0.736860000000     0.498373333333     0.495170000000     0.037      
Y        Y      0.903526666667     0.334960000000     0.254830000000     0.037      
Y        Y      0.929806666667     0.501626666667     0.504830000000     0.037      
Y        Y      0.763140000000     0.665040000000     0.745170000000     0.037      
Y        Y      0.736860000000     0.498373333333     0.995170000000     0.037      
Y        Y      0.903526666667     0.334960000000     0.754830000000     0.037      
Y        Y      0.929806666667     0.834960000000     0.004830000000     0.037      
Y        Y      0.763140000000     0.998373333333     0.245170000000     0.037      
Y        Y      0.736860000000     0.831706666667     0.495170000000     0.037      
Y        Y      0.903526666667     0.668293333333     0.254830000000     0.037      
Y        Y      0.929806666667     0.834960000000     0.504830000000     0.037      
Y        Y      0.763140000000     0.998373333333     0.745170000000     0.037      
Y        Y      0.736860000000     0.831706666667     0.995170000000     0.037      
Y        Y      0.903526666667     0.668293333333     0.754830000000     0.037      
H        H      0.053933333333     0.123400000000     0.386000000000     0.012      
H        H      0.062066666667     0.084166666667     0.326400000000     0.012      
H        H      0.260166666667     0.094133333333     0.303650000000     0.012      
H        H      0.251333333333     0.133100000000     0.363500000000     0.012      
H        H      0.067600000000     0.034133333333     0.016300000000     0.012      
H        H      0.264366666667     0.034900000000     0.492250000000     0.012      
H        H      0.220600000000     0.043266666667     0.364000000000     0.012      
H        H      0.228733333333     0.082500000000     0.423600000000     0.012      
H        H      0.093500000000     0.072533333333     0.446350000000     0.012      
H        H      0.084666666667     0.033566666667     0.386500000000     0.012      
H        H      0.234266666667     0.132533333333     0.233700000000     0.012      
H        H      0.097700000000     0.131766666667     0.257750000000     0.012      
H        H      0.279400000000     0.209933333333     0.114000000000     0.012      
H        H      0.271266666667     0.249166666667     0.173600000000     0.012      
H        H      0.073166666667     0.239200000000     0.196350000000     0.012      
H        H      0.082000000000     0.200233333333     0.136500000000     0.012      
H        H      0.265733333333     0.299200000000     0.483700000000     0.012      
H        H      0.068966666667     0.298433333333     0.007750000000     0.012      
H        H      0.112733333333     0.290066666667     0.136000000000     0.012      
H        H      0.104600000000     0.250833333333     0.076400000000     0.012      
H        H      0.239833333333     0.260800000000     0.053650000000     0.012      
H        H      0.248666666667     0.299766666667     0.113500000000     0.012      
H        H      0.099066666667     0.200800000000     0.266300000000     0.012      
H        H      0.235633333333     0.201566666667     0.242250000000     0.012      
H        H      0.053933333333     0.123400000000     0.886000000000     0.012      
H        H      0.062066666667     0.084166666667     0.826400000000     0.012      
H        H      0.260166666667     0.094133333333     0.803650000000     0.012      
H        H      0.251333333333     0.133100000000     0.863500000000     0.012      
H        H      0.067600000000     0.034133333333     0.516300000000     0.012      
H        H      0.264366666667     0.034900000000     0.992250000000     0.012      
H        H      0.220600000000     0.043266666667     0.864000000000     0.012      
H        H      0.228733333333     0.082500000000     0.923600000000     0.012      
H        H      0.093500000000     0.072533333333     0.946350000000     0.012      
H        H      0.084666666667     0.033566666667     0.886500000000     0.012      
H        H      0.234266666667     0.132533333333     0.733700000000     0.012      
H        H      0.097700000000     0.131766666667     0.757750000000     0.012      
H        H      0.279400000000     0.209933333333     0.614000000000     0.012      
H        H      0.271266666667     0.249166666667     0.673600000000     0.012      
H        H      0.073166666667     0.239200000000     0.696350000000     0.012      
H        H      0.082000000000     0.200233333333     0.636500000000     0.012      
H        H      0.265733333333     0.299200000000     0.983700000000     0.012      
H        H      0.068966666667     0.298433333333     0.507750000000     0.012      
H        H      0.112733333333     0.290066666667     0.636000000000     0.012      
H        H      0.104600000000     0.250833333333     0.576400000000     0.012      
H        H      0.239833333333     0.260800000000     0.553650000000     0.012      
H        H      0.248666666667     0.299766666667     0.613500000000     0.012      
H        H      0.099066666667     0.200800000000     0.766300000000     0.012      
H        H      0.235633333333     0.201566666667     0.742250000000     0.012      
H        H      0.053933333333     0.456733333333     0.386000000000     0.012      
H        H      0.062066666667     0.417500000000     0.326400000000     0.012      
H        H      0.260166666667     0.427466666667     0.303650000000     0.012      
H        H      0.251333333333     0.466433333333     0.363500000000     0.012      
H        H      0.067600000000     0.367466666667     0.016300000000     0.012      
H        H      0.264366666667     0.368233333333     0.492250000000     0.012      
H        H      0.220600000000     0.376600000000     0.364000000000     0.012      
H        H      0.228733333333     0.415833333333     0.423600000000     0.012      
H        H      0.093500000000     0.405866666667     0.446350000000     0.012      
H        H      0.084666666667     0.366900000000     0.386500000000     0.012      
H        H      0.234266666667     0.465866666667     0.233700000000     0.012      
H        H      0.097700000000     0.465100000000     0.257750000000     0.012      
H        H      0.279400000000     0.543266666667     0.114000000000     0.012      
H        H      0.271266666667     0.582500000000     0.173600000000     0.012      
H        H      0.073166666667     0.572533333333     0.196350000000     0.012      
H        H      0.082000000000     0.533566666667     0.136500000000     0.012      
H        H      0.265733333333     0.632533333333     0.483700000000     0.012      
H        H      0.068966666667     0.631766666667     0.007750000000     0.012      
H        H      0.112733333333     0.623400000000     0.136000000000     0.012      
H        H      0.104600000000     0.584166666667     0.076400000000     0.012      
H        H      0.239833333333     0.594133333333     0.053650000000     0.012      
H        H      0.248666666667     0.633100000000     0.113500000000     0.012      
H        H      0.099066666667     0.534133333333     0.266300000000     0.012      
H        H      0.235633333333     0.534900000000     0.242250000000     0.012      
H        H      0.053933333333     0.456733333333     0.886000000000     0.012      
H        H      0.062066666667     0.417500000000     0.826400000000     0.012      
H        H      0.260166666667     0.427466666667     0.803650000000     0.012      
H        H      0.251333333333     0.466433333333     0.863500000000     0.012      
H        H      0.067600000000     0.367466666667     0.516300000000     0.012      
H        H      0.264366666667     0.368233333333     0.992250000000     0.012      
H        H      0.220600000000     0.376600000000     0.864000000000     0.012      
H        H      0.228733333333     0.415833333333     0.923600000000     0.012      
H        H      0.093500000000     0.405866666667     0.946350000000     0.012      
H        H      0.084666666667     0.366900000000     0.886500000000     0.012      
H        H      0.234266666667     0.465866666667     0.733700000000     0.012      
H        H      0.097700000000     0.465100000000     0.757750000000     0.012      
H        H      0.279400000000     0.543266666667     0.614000000000     0.012      
H        H      0.271266666667     0.582500000000     0.673600000000     0.012      
H        H      0.073166666667     0.572533333333     0.696350000000     0.012      
H        H      0.082000000000     0.533566666667     0.636500000000     0.012      
H        H      0.265733333333     0.632533333333     0.983700000000     0.012      
H        H      0.068966666667     0.631766666667     0.507750000000     0.012      
H        H      0.112733333333     0.623400000000     0.636000000000     0.012      
H        H      0.104600000000     0.584166666667     0.576400000000     0.012      
H        H      0.239833333333     0.594133333333     0.553650000000     0.012      
H        H      0.248666666667     0.633100000000     0.613500000000     0.012      
H        H      0.099066666667     0.534133333333     0.766300000000     0.012      
H        H      0.235633333333     0.534900000000     0.742250000000     0.012      
H        H      0.053933333333     0.790066666667     0.386000000000     0.012      
H        H      0.062066666667     0.750833333333     0.326400000000     0.012      
H        H      0.260166666667     0.760800000000     0.303650000000     0.012      
H        H      0.251333333333     0.799766666667     0.363500000000     0.012      
H        H      0.067600000000     0.700800000000     0.016300000000     0.012      
H        H      0.264366666667     0.701566666667     0.492250000000     0.012      
H        H      0.220600000000     0.709933333333     0.364000000000     0.012      
H        H      0.228733333333     0.749166666667     0.423600000000     0.012      
H        H      0.093500000000     0.739200000000     0.446350000000     0.012      
H        H      0.084666666667     0.700233333333     0.386500000000     0.012      
H        H      0.234266666667     0.799200000000     0.233700000000     0.012      
H        H      0.097700000000     0.798433333333     0.257750000000     0.012      
H        H      0.279400000000     0.876600000000     0.114000000000     0.012      
H        H      0.271266666667     0.915833333333     0.173600000000     0.012      
H        H      0.073166666667     0.905866666667     0.196350000000     0.012      
H        H      0.082000000000     0.866900000000     0.136500000000     0.012      
H        H      0.265733333333     0.965866666667     0.483700000000     0.012      
H        H      0.068966666667     0.965100000000     0.007750000000     0.012      
H        H      0.112733333333     0.956733333333     0.136000000000     0.012      
H        H      0.104600000000     0.917500000000     0.076400000000     0.012      
H        H      0.239833333333     0.927466666667     0.053650000000     0.012      
H        H      0.248666666667     0.966433333333     0.113500000000     0.012      
H        H      0.099066666667     0.867466666667     0.266300000000     0.012      
H        H      0.235633333333     0.868233333333     0.242250000000     0.012      
H        H      0.053933333333     0.790066666667     0.886000000000     0.012      
H        H      0.062066666667     0.750833333333     0.826400000000     0.012      
H        H      0.260166666667     0.760800000000     0.803650000000     0.012      
H        H      0.251333333333     0.799766666667     0.863500000000     0.012      
H        H      0.067600000000     0.700800000000     0.516300000000     0.012      
H        H      0.264366666667     0.701566666667     0.992250000000     0.012      
H        H      0.220600000000     0.709933333333     0.864000000000     0.012      
H        H      0.228733333333     0.749166666667     0.923600000000     0.012      
H        H      0.093500000000     0.739200000000     0.946350000000     0.012      
H        H      0.084666666667     0.700233333333     0.886500000000     0.012      
H        H      0.234266666667     0.799200000000     0.733700000000     0.012      
H        H      0.097700000000     0.798433333333     0.757750000000     0.012      
H        H      0.279400000000     0.876600000000     0.614000000000     0.012      
H        H      0.271266666667     0.915833333333     0.673600000000     0.012      
H        H      0.073166666667     0.905866666667     0.696350000000     0.012      
H        H      0.082000000000     0.866900000000     0.636500000000     0.012      
H        H      0.265733333333     0.965866666667     0.983700000000     0.012      
H        H      0.068966666667     0.965100000000     0.507750000000     0.012      
H        H      0.112733333333     0.956733333333     0.636000000000     0.012      
H        H      0.104600000000     0.917500000000     0.576400000000     0.012      
H        H      0.239833333333     0.927466666667     0.553650000000     0.012      
H        H      0.248666666667     0.966433333333     0.613500000000     0.012      
H        H      0.099066666667     0.867466666667     0.766300000000     0.012      
H        H      0.235633333333     0.868233333333     0.742250000000     0.012      
H        H      0.387266666667     0.123400000000     0.386000000000     0.012      
H        H      0.395400000000     0.084166666667     0.326400000000     0.012      
H        H      0.593500000000     0.094133333333     0.303650000000     0.012      
H        H      0.584666666667     0.133100000000     0.363500000000     0.012      
H        H      0.400933333333     0.034133333333     0.016300000000     0.012      
H        H      0.597700000000     0.034900000000     0.492250000000     0.012      
H        H      0.553933333333     0.043266666667     0.364000000000     0.012      
H        H      0.562066666667     0.082500000000     0.423600000000     0.012      
H        H      0.426833333333     0.072533333333     0.446350000000     0.012      
H        H      0.418000000000     0.033566666667     0.386500000000     0.012      
H        H      0.567600000000     0.132533333333     0.233700000000     0.012      
H        H      0.431033333333     0.131766666667     0.257750000000     0.012      
H        H      0.612733333333     0.209933333333     0.114000000000     0.012      
H        H      0.604600000000     0.249166666667     0.173600000000     0.012      
H        H      0.406500000000     0.239200000000     0.196350000000     0.012      
H        H      0.415333333333     0.200233333333     0.136500000000     0.012      
H        H      0.599066666667     0.299200000000     0.483700000000     0.012      
H        H      0.402300000000     0.298433333333     0.007750000000     0.012      
H        H      0.446066666667     0.290066666667     0.136000000000     0.012      
H        H      0.437933333333     0.250833333333     0.076400000000     0.012      
H        H      0.573166666667     0.260800000000     0.053650000000     0.012      
H        H      0.582000000000     0.299766666667     0.113500000000     0.012      
H        H      0.432400000000     0.200800000000     0.266300000000     0.012      
H        H      0.568966666667     0.201566666667     0.242250000000     0.012      
H        H      0.387266666667     0.123400000000     0.886000000000     0.012      
H        H      0.395400000000     0.084166666667     0.826400000000     0.012      
H        H      0.593500000000     0.094133333333     0.803650000000     0.012      
H        H      0.584666666667     0.133100000000     0.863500000000     0.012      
H        H      0.400933333333     0.034133333333     0.516300000000     0.012      
H        H      0.597700000000     0.034900000000     0.992250000000     0.012      
H        H      0.553933333333     0.043266666667     0.864000000000     0.012      
H        H      0.562066666667     0.082500000000     0.923600000000     0.012      
H        H      0.426833333333     0.072533333333     0.946350000000     0.012      
H        H      0.418000000000     0.033566666667     0.886500000000     0.012      
H        H      0.567600000000     0.132533333333     0.733700000000     0.012      
H        H      0.431033333333     0.131766666667     0.757750000000     0.012      
H        H      0.612733333333     0.209933333333     0.614000000000     0.012      
H        H      0.604600000000     0.249166666667     0.673600000000     0.012      
H        H      0.406500000000     0.239200000000     0.696350000000     0.012      
H        H      0.415333333333     0.200233333333     0.636500000000     0.012      
H        H      0.599066666667     0.299200000000     0.983700000000     0.012      
H        H      0.402300000000     0.298433333333     0.507750000000     0.012      
H        H      0.446066666667     0.290066666667     0.636000000000     0.012      
H        H      0.437933333333     0.250833333333     0.576400000000     0.012      
H        H      0.573166666667     0.260800000000     0.553650000000     0.012      
H        H      0.582000000000     0.299766666667     0.613500000000     0.012      
H        H      0.432400000000     0.200800000000     0.766300000000     0.012      
H        H      0.568966666667     0.201566666667     0.742250000000     0.012      
H        H      0.387266666667     0.456733333333     0.386000000000     0.012      
H        H      0.395400000000     0.417500000000     0.326400000000     0.012      
H        H      0.593500000000     0.427466666667     0.303650000000     0.012      
H        H      0.584666666667     0.466433333333     0.363500000000     0.012      
H        H      0.400933333333     0.367466666667     0.016300000000     0.012      
H        H      0.597700000000     0.368233333333     0.492250000000     0.012      
H        H      0.553933333333     0.376600000000     0.364000000000     0.012      
H        H      0.562066666667     0.415833333333     0.423600000000     0.012      
H        H      0.426833333333     0.405866666667     0.446350000000     0.012      
H        H      0.418000000000     0.366900000000     0.386500000000     0.012      
H        H      0.567600000000     0.465866666667     0.233700000000     0.012      
H        H      0.431033333333     0.465100000000     0.257750000000     0.012      
H        H      0.612733333333     0.543266666667     0.114000000000     0.012      
H        H      0.604600000000     0.582500000000     0.173600000000     0.012      
H        H      0.406500000000     0.572533333333     0.196350000000     0.012      
H        H      0.415333333333     0.533566666667     0.136500000000     0.012      
H        H      0.599066666667     0.632533333333     0.483700000000     0.012      
H        H      0.402300000000     0.631766666667     0.007750000000     0.012      
H        H      0.446066666667     0.623400000000     0.136000000000     0.012      
H        H      0.437933333333     0.584166666667     0.076400000000     0.012      
H        H      0.573166666667     0.594133333333     0.053650000000     0.012      
H        H      0.582000000000     0.633100000000     0.113500000000     0.012      
H        H      0.432400000000     0.534133333333     0.266300000000     0.012      
H        H      0.568966666667     0.534900000000     0.242250000000     0.012      
H        H      0.387266666667     0.456733333333     0.886000000000     0.012      
H        H      0.395400000000     0.417500000000     0.826400000000     0.012      
H        H      0.593500000000     0.427466666667     0.803650000000     0.012      
H        H      0.584666666667     0.466433333333     0.863500000000     0.012      
H        H      0.400933333333     0.367466666667     0.516300000000     0.012      
H        H      0.597700000000     0.368233333333     0.992250000000     0.012      
H        H      0.553933333333     0.376600000000     0.864000000000     0.012      
H        H      0.562066666667     0.415833333333     0.923600000000     0.012      
H        H      0.426833333333     0.405866666667     0.946350000000     0.012      
H        H      0.418000000000     0.366900000000     0.886500000000     0.012      
H        H      0.567600000000     0.465866666667     0.733700000000     0.012      
H        H      0.431033333333     0.465100000000     0.757750000000     0.012      
H        H      0.612733333333     0.543266666667     0.614000000000     0.012      
H        H      0.604600000000     0.582500000000     0.673600000000     0.012      
H        H      0.406500000000     0.572533333333     0.696350000000     0.012      
H        H      0.415333333333     0.533566666667     0.636500000000     0.012      
H        H      0.599066666667     0.632533333333     0.983700000000     0.012      
H        H      0.402300000000     0.631766666667     0.507750000000     0.012      
H        H      0.446066666667     0.623400000000     0.636000000000     0.012      
H        H      0.437933333333     0.584166666667     0.576400000000     0.012      
H        H      0.573166666667     0.594133333333     0.553650000000     0.012      
H        H      0.582000000000     0.633100000000     0.613500000000     0.012      
H        H      0.432400000000     0.534133333333     0.766300000000     0.012      
H        H      0.568966666667     0.534900000000     0.742250000000     0.012      
H        H      0.387266666667     0.790066666667     0.386000000000     0.012      
H        H      0.395400000000     0.750833333333     0.326400000000     0.012      
H        H      0.593500000000     0.760800000000     0.303650000000     0.012      
H        H      0.584666666667     0.799766666667     0.363500000000     0.012      
H        H      0.400933333333     0.700800000000     0.016300000000     0.012      
H        H      0.597700000000     0.701566666667     0.492250000000     0.012      
H        H      0.553933333333     0.709933333333     0.364000000000     0.012      
H        H      0.562066666667     0.749166666667     0.423600000000     0.012      
H        H      0.426833333333     0.739200000000     0.446350000000     0.012      
H        H      0.418000000000     0.700233333333     0.386500000000     0.012      
H        H      0.567600000000     0.799200000000     0.233700000000     0.012      
H        H      0.431033333333     0.798433333333     0.257750000000     0.012      
H        H      0.612733333333     0.876600000000     0.114000000000     0.012      
H        H      0.604600000000     0.915833333333     0.173600000000     0.012      
H        H      0.406500000000     0.905866666667     0.196350000000     0.012      
H        H      0.415333333333     0.866900000000     0.136500000000     0.012      
H        H      0.599066666667     0.965866666667     0.483700000000     0.012      
H        H      0.402300000000     0.965100000000     0.007750000000     0.012      
H        H      0.446066666667     0.956733333333     0.136000000000     0.012      
H        H      0.437933333333     0.917500000000     0.076400000000     0.012      
H        H      0.573166666667     0.927466666667     0.053650000000     0.012      
H        H      0.582000000000     0.966433333333     0.113500000000     0.012      
H        H      0.432400000000     0.867466666667     0.266300000000     0.012      
H        H      0.568966666667     0.868233333333     0.242250000000     0.012      
H        H      0.387266666667     0.790066666667     0.886000000000     0.012      
H        H      0.395400000000     0.750833333333     0.826400000000     0.012      
H        H      0.593500000000     0.760800000000     0.803650000000     0.012      
H        H      0.584666666667     0.799766666667     0.863500000000     0.012      
H        H      0.400933333333     0.700800000000     0.516300000000     0.012      
H        H      0.597700000000     0.701566666667     0.992250000000     0.012      
H        H      0.553933333333     0.709933333333     0.864000000000     0.012      
H        H      0.562066666667     0.749166666667     0.923600000000     0.012      
H        H      0.426833333333     0.739200000000     0.946350000000     0.012      
H        H      0.418000000000     0.700233333333     0.886500000000     0.012      
H        H      0.567600000000     0.799200000000     0.733700000000     0.012      
H        H      0.431033333333     0.798433333333     0.757750000000     0.012      
H        H      0.612733333333     0.876600000000     0.614000000000     0.012      
H        H      0.604600000000     0.915833333333     0.673600000000     0.012      
H        H      0.406500000000     0.905866666667     0.696350000000     0.012      
H        H      0.415333333333     0.866900000000     0.636500000000     0.012      
H        H      0.599066666667     0.965866666667     0.983700000000     0.012      
H        H      0.402300000000     0.965100000000     0.507750000000     0.012      
H        H      0.446066666667     0.956733333333     0.636000000000     0.012      
H        H      0.437933333333     0.917500000000     0.576400000000     0.012      
H        H      0.573166666667     0.927466666667     0.553650000000     0.012      
H        H      0.582000000000     0.966433333333     0.613500000000     0.012      
H        H      0.432400000000     0.867466666667     0.766300000000     0.012      
H        H      0.568966666667     0.868233333333     0.742250000000     0.012      
H        H      0.720600000000     0.123400000000     0.386000000000     0.012      
H        H      0.728733333333     0.084166666667     0.326400000000     0.012      
H        H      0.926833333333     0.094133333333     0.303650000000     0.012      
H        H      0.918000000000     0.133100000000     0.363500000000     0.012      
H        H      0.734266666667     0.034133333333     0.016300000000     0.012      
H        H      0.931033333333     0.034900000000     0.492250000000     0.012      
H        H      0.887266666667     0.043266666667     0.364000000000     0.012      
H        H      0.895400000000     0.082500000000     0.423600000000     0.012      
H        H      0.760166666667     0.072533333333     0.446350000000     0.012      
H        H      0.751333333333     0.033566666667     0.386500000000     0.012      
H        H      0.900933333333     0.132533333333     0.233700000000     0.012      
H        H      0.764366666667     0.131766666667     0.257750000000     0.012      
H        H      0.946066666667     0.209933333333     0.114000000000     0.012      
H        H      0.937933333333     0.249166666667     0.173600000000     0.012      
H        H      0.739833333333     0.239200000000     0.196350000000     0.012      
H        H      0.748666666667     0.200233333333     0.136500000000     0.012      
H        H      0.932400000000     0.299200000000     0.483700000000     0.012      
H        H      0.735633333333     0.298433333333     0.007750000000     0.012      
H        H      0.779400000000     0.290066666667     0.136000000000     0.012      
H        H      0.771266666667     0.250833333333     0.076400000000     0.012      
H        H      0.906500000000     0.260800000000     0.053650000000     0.012      
H        H      0.915333333333     0.299766666667     0.113500000000     0.012      
H        H      0.765733333333     0.200800000000     0.266300000000     0.012      
H        H      0.902300000000     0.201566666667     0.242250000000     0.012      
H        H      0.720600000000     0.123400000000     0.886000000000     0.012      
H        H      0.728733333333     0.084166666667     0.826400000000     0.012      
H        H      0.926833333333     0.094133333333     0.803650000000     0.012      
H        H      0.918000000000     0.133100000000     0.863500000000     0.012      
H        H      0.734266666667     0.034133333333     0.516300000000     0.012      
H        H      0.931033333333     0.034900000000     0.992250000000     0.012      
H        H      0.887266666667     0.043266666667     0.864000000000     0.012      
H        H      0.895400000000     0.082500000000     0.923600000000     0.012      
H        H      0.760166666667     0.072533333333     0.946350000000     0.012      
H        H      0.751333333333     0.033566666667     0.886500000000     0.012      
H        H      0.900933333333     0.132533333333     0.733700000000     0.012      
H        H      0.764366666667     0.131766666667     0.757750000000     0.012      
H        H      0.946066666667     0.209933333333     0.614000000000     0.012      
H        H      0.937933333333     0.249166666667     0.673600000000     0.012      
H        H      0.739833333333     0.239200000000     0.696350000000     0.012      
H        H      0.748666666667     0.200233333333     0.636500000000     0.012      
H        H      0.932400000000     0.299200000000     0.983700000000     0.012      
H        H      0.735633333333     0.298433333333     0.507750000000     0.012      
H        H      0.779400000000     0.290066666667     0.636000000000     0.012      
H        H      0.771266666667     0.250833333333     0.576400000000     0.012      
H        H      0.906500000000     0.260800000000     0.553650000000     0.012      
H        H      0.915333333333     0.299766666667     0.613500000000     0.012      
H        H      0.765733333333     0.200800000000     0.766300000000     0.012      
H        H      0.902300000000     0.201566666667     0.742250000000     0.012      
H        H      0.720600000000     0.456733333333     0.386000000000     0.012      
H        H      0.728733333333     0.417500000000     0.326400000000     0.012      
H        H      0.926833333333     0.427466666667     0.303650000000     0.012      
H        H      0.918000000000     0.466433333333     0.363500000000     0.012      
H        H      0.734266666667     0.367466666667     0.016300000000     0.012      
H        H      0.931033333333     0.368233333333     0.492250000000     0.012      
H        H      0.887266666667     0.376600000000     0.364000000000     0.012      
H        H      0.895400000000     0.415833333333     0.423600000000     0.012      
H        H      0.760166666667     0.405866666667     0.446350000000     0.012      
H        H      0.751333333333     0.366900000000     0.386500000000     0.012      
H        H      0.900933333333     0.465866666667     0.233700000000     0.012      
H        H      0.764366666667     0.465100000000     0.257750000000     0.012      
H        H      0.946066666667     0.543266666667     0.114000000000     0.012      
H        H      0.937933333333     0.582500000000     0.173600000000     0.012      
H        H      0.739833333333     0.572533333333     0.196350000000     0.012      
H        H      0.748666666667     0.533566666667     0.136500000000     0.012      
H        H      0.932400000000     0.632533333333     0.483700000000     0.012      
H        H      0.735633333333     0.631766666667     0.007750000000     0.012      
H        H      0.779400000000     0.623400000000     0.136000000000     0.012      
H        H      0.771266666667     0.584166666667     0.076400000000     0.012      
H        H      0.906500000000     0.594133333333     0.053650000000     0.012      
H        H      0.915333333333     0.633100000000     0.113500000000     0.012      
H        H      0.765733333333     0.534133333333     0.266300000000     0.012      
H        H      0.902300000000     0.534900000000     0.242250000000     0.012      
H        H      0.720600000000     0.456733333333     0.886000000000     0.012      
H        H      0.728733333333     0.417500000000     0.826400000000     0.012      
H        H      0.926833333333     0.427466666667     0.803650000000     0.012      
H        H      0.918000000000     0.466433333333     0.863500000000     0.012      
H        H      0.734266666667     0.367466666667     0.516300000000     0.012      
H        H      0.931033333333     0.368233333333     0.992250000000     0.012      
H        H      0.887266666667     0.376600000000     0.864000000000     0.012      
H        H      0.895400000000     0.415833333333     0.923600000000     0.012      
H        H      0.760166666667     0.405866666667     0.946350000000     0.012      
H        H      0.751333333333     0.366900000000     0.886500000000     0.012      
H        H      0.900933333333     0.465866666667     0.733700000000     0.012      
H        H      0.764366666667     0.465100000000     0.757750000000     0.012      
H        H      0.946066666667     0.543266666667     0.614000000000     0.012      
H        H      0.937933333333     0.582500000000     0.673600000000     0.012      
H        H      0.739833333333     0.572533333333     0.696350000000     0.012      
H        H      0.748666666667     0.533566666667     0.636500000000     0.012      
H        H      0.932400000000     0.632533333333     0.983700000000     0.012      
H        H      0.735633333333     0.631766666667     0.507750000000     0.012      
H        H      0.779400000000     0.623400000000     0.636000000000     0.012      
H        H      0.771266666667     0.584166666667     0.576400000000     0.012      
H        H      0.906500000000     0.594133333333     0.553650000000     0.012      
H        H      0.915333333333     0.633100000000     0.613500000000     0.012      
H        H      0.765733333333     0.534133333333     0.766300000000     0.012      
H        H      0.902300000000     0.534900000000     0.742250000000     0.012      
H        H      0.720600000000     0.790066666667     0.386000000000     0.012      
H        H      0.728733333333     0.750833333333     0.326400000000     0.012      
H        H      0.926833333333     0.760800000000     0.303650000000     0.012      
H        H      0.918000000000     0.799766666667     0.363500000000     0.012      
H        H      0.734266666667     0.700800000000     0.016300000000     0.012      
H        H      0.931033333333     0.701566666667     0.492250000000     0.012      
H        H      0.887266666667     0.709933333333     0.364000000000     0.012      
H        H      0.895400000000     0.749166666667     0.423600000000     0.012      
H        H      0.760166666667     0.739200000000     0.446350000000     0.012      
H        H      0.751333333333     0.700233333333     0.386500000000     0.012      
H        H      0.900933333333     0.799200000000     0.233700000000     0.012      
H        H      0.764366666667     0.798433333333     0.257750000000     0.012      
H        H      0.946066666667     0.876600000000     0.114000000000     0.012      
H        H      0.937933333333     0.915833333333     0.173600000000     0.012      
H        H      0.739833333333     0.905866666667     0.196350000000     0.012      
H        H      0.748666666667     0.866900000000     0.136500000000     0.012      
H        H      0.932400000000     0.965866666667     0.483700000000     0.012      
H        H      0.735633333333     0.965100000000     0.007750000000     0.012      
H        H      0.779400000000     0.956733333333     0.136000000000     0.012      
H        H      0.771266666667     0.917500000000     0.076400000000     0.012      
H        H      0.906500000000     0.927466666667     0.053650000000     0.012      
H        H      0.915333333333     0.966433333333     0.113500000000     0.012      
H        H      0.765733333333     0.867466666667     0.266300000000     0.012      
H        H      0.902300000000     0.868233333333     0.242250000000     0.012      
H        H      0.720600000000     0.790066666667     0.886000000000     0.012      
H        H      0.728733333333     0.750833333333     0.826400000000     0.012      
H        H      0.926833333333     0.760800000000     0.803650000000     0.012      
H        H      0.918000000000     0.799766666667     0.863500000000     0.012      
H        H      0.734266666667     0.700800000000     0.516300000000     0.012      
H        H      0.931033333333     0.701566666667     0.992250000000     0.012      
H        H      0.887266666667     0.709933333333     0.864000000000     0.012      
H        H      0.895400000000     0.749166666667     0.923600000000     0.012      
H        H      0.760166666667     0.739200000000     0.946350000000     0.012      
H        H      0.751333333333     0.700233333333     0.886500000000     0.012      
H        H      0.900933333333     0.799200000000     0.733700000000     0.012      
H        H      0.764366666667     0.798433333333     0.757750000000     0.012      
H        H      0.946066666667     0.876600000000     0.614000000000     0.012      
H        H      0.937933333333     0.915833333333     0.673600000000     0.012      
H        H      0.739833333333     0.905866666667     0.696350000000     0.012      
H        H      0.748666666667     0.866900000000     0.636500000000     0.012      
H        H      0.932400000000     0.965866666667     0.983700000000     0.012      
H        H      0.735633333333     0.965100000000     0.507750000000     0.012      
H        H      0.779400000000     0.956733333333     0.636000000000     0.012      
H        H      0.771266666667     0.917500000000     0.576400000000     0.012      
H        H      0.906500000000     0.927466666667     0.553650000000     0.012      
H        H      0.915333333333     0.966433333333     0.613500000000     0.012      
H        H      0.765733333333     0.867466666667     0.766300000000     0.012      
H        H      0.902300000000     0.868233333333     0.742250000000     0.012      
O        O      0.270133333333     0.162500000000     0.432650000000     0.049      
O        O      0.009900000000     0.154266666667     0.449350000000     0.049      
O        O      0.297066666667     0.045333333333     0.253750000000     0.049      
O        O      0.039033333333     0.042200000000     0.265100000000     0.049      
O        O      0.293533333333     0.103900000000     0.010500000000     0.049      
O        O      0.037766666667     0.103900000000     0.011050000000     0.049      
O        O      0.103466666667     0.004166666667     0.317350000000     0.049      
O        O      0.176566666667     0.012400000000     0.300650000000     0.049      
O        O      0.130400000000     0.121333333333     0.496250000000     0.049      
O        O      0.205700000000     0.124466666667     0.484900000000     0.049      
O        O      0.126866666667     0.062766666667     0.239500000000     0.049      
O        O      0.204433333333     0.062766666667     0.238950000000     0.049      
O        O      0.063200000000     0.170833333333     0.067350000000     0.049      
O        O      0.323433333333     0.179066666667     0.050650000000     0.049      
O        O      0.036266666667     0.288000000000     0.246250000000     0.049      
O        O      0.294300000000     0.291133333333     0.234900000000     0.049      
O        O      0.039800000000     0.229433333333     0.489500000000     0.049      
O        O      0.295566666667     0.229433333333     0.488950000000     0.049      
O        O      0.229866666667     0.329166666667     0.182650000000     0.049      
O        O      0.156766666667     0.320933333333     0.199350000000     0.049      
O        O      0.202933333333     0.212000000000     0.003750000000     0.049      
O        O      0.127633333333     0.208866666667     0.015100000000     0.049      
O        O      0.206466666667     0.270566666667     0.260500000000     0.049      
O        O      0.128900000000     0.270566666667     0.261050000000     0.049      
O        O      0.270133333333     0.162500000000     0.932650000000     0.049      
O        O      0.009900000000     0.154266666667     0.949350000000     0.049      
O        O      0.297066666667     0.045333333333     0.753750000000     0.049      
O        O      0.039033333333     0.042200000000     0.765100000000     0.049      
O        O      0.293533333333     0.103900000000     0.510500000000     0.049      
O        O      0.037766666667     0.103900000000     0.511050000000     0.049      
O        O      0.103466666667     0.004166666667     0.817350000000     0.049      
O        O      0.176566666667     0.012400000000     0.800650000000     0.049      
O        O      0.130400000000     0.121333333333     0.996250000000     0.049      
O        O      0.205700000000     0.124466666667     0.984900000000     0.049      
O        O      0.126866666667     0.062766666667     0.739500000000     0.049      
O        O      0.204433333333     0.062766666667     0.738950000000     0.049      
O        O      0.063200000000     0.170833333333     0.567350000000     0.049      
O        O      0.323433333333     0.179066666667     0.550650000000     0.049      
O        O      0.036266666667     0.288000000000     0.746250000000     0.049      
O        O      0.294300000000     0.291133333333     0.734900000000     0.049      
O        O      0.039800000000     0.229433333333     0.989500000000     0.049      
O        O      0.295566666667     0.229433333333     0.988950000000     0.049      
O        O      0.229866666667     0.329166666667     0.682650000000     0.049      
O        O      0.156766666667     0.320933333333     0.699350000000     0.049      
O        O      0.202933333333     0.212000000000     0.503750000000     0.049      
O        O      0.127633333333     0.208866666667     0.515100000000     0.049      
O        O      0.206466666667     0.270566666667     0.760500000000     0.049      
O        O      0.128900000000     0.270566666667     0.761050000000     0.049      
O        O      0.270133333333     0.495833333333     0.432650000000     0.049      
O        O      0.009900000000     0.487600000000     0.449350000000     0.049      
O        O      0.297066666667     0.378666666667     0.253750000000     0.049      
O        O      0.039033333333     0.375533333333     0.265100000000     0.049      
O        O      0.293533333333     0.437233333333     0.010500000000     0.049      
O        O      0.037766666667     0.437233333333     0.011050000000     0.049      
O        O      0.103466666667     0.337500000000     0.317350000000     0.049      
O        O      0.176566666667     0.345733333333     0.300650000000     0.049      
O        O      0.130400000000     0.454666666667     0.496250000000     0.049      
O        O      0.205700000000     0.457800000000     0.484900000000     0.049      
O        O      0.126866666667     0.396100000000     0.239500000000     0.049      
O        O      0.204433333333     0.396100000000     0.238950000000     0.049      
O        O      0.063200000000     0.504166666667     0.067350000000     0.049      
O        O      0.323433333333     0.512400000000     0.050650000000     0.049      
O        O      0.036266666667     0.621333333333     0.246250000000     0.049      
O        O      0.294300000000     0.624466666667     0.234900000000     0.049      
O        O      0.039800000000     0.562766666667     0.489500000000     0.049      
O        O      0.295566666667     0.562766666667     0.488950000000     0.049      
O        O      0.229866666667     0.662500000000     0.182650000000     0.049      
O        O      0.156766666667     0.654266666667     0.199350000000     0.049      
O        O      0.202933333333     0.545333333333     0.003750000000     0.049      
O        O      0.127633333333     0.542200000000     0.015100000000     0.049      
O        O      0.206466666667     0.603900000000     0.260500000000     0.049      
O        O      0.128900000000     0.603900000000     0.261050000000     0.049      
O        O      0.270133333333     0.495833333333     0.932650000000     0.049      
O        O      0.009900000000     0.487600000000     0.949350000000     0.049      
O        O      0.297066666667     0.378666666667     0.753750000000     0.049      
O        O      0.039033333333     0.375533333333     0.765100000000     0.049      
O        O      0.293533333333     0.437233333333     0.510500000000     0.049      
O        O      0.037766666667     0.437233333333     0.511050000000     0.049      
O        O      0.103466666667     0.337500000000     0.817350000000     0.049      
O        O      0.176566666667     0.345733333333     0.800650000000     0.049      
O        O      0.130400000000     0.454666666667     0.996250000000     0.049      
O        O      0.205700000000     0.457800000000     0.984900000000     0.049      
O        O      0.126866666667     0.396100000000     0.739500000000     0.049      
O        O      0.204433333333     0.396100000000     0.738950000000     0.049      
O        O      0.063200000000     0.504166666667     0.567350000000     0.049      
O        O      0.323433333333     0.512400000000     0.550650000000     0.049      
O        O      0.036266666667     0.621333333333     0.746250000000     0.049      
O        O      0.294300000000     0.624466666667     0.734900000000     0.049      
O        O      0.039800000000     0.562766666667     0.989500000000     0.049      
O        O      0.295566666667     0.562766666667     0.988950000000     0.049      
O        O      0.229866666667     0.662500000000     0.682650000000     0.049      
O        O      0.156766666667     0.654266666667     0.699350000000     0.049      
O        O      0.202933333333     0.545333333333     0.503750000000     0.049      
O        O      0.127633333333     0.542200000000     0.515100000000     0.049      
O        O      0.206466666667     0.603900000000     0.760500000000     0.049      
O        O      0.128900000000     0.603900000000     0.761050000000     0.049      
O        O      0.270133333333     0.829166666667     0.432650000000     0.049      
O        O      0.009900000000     0.820933333333     0.449350000000     0.049      
O        O      0.297066666667     0.712000000000     0.253750000000     0.049      
O        O      0.039033333333     0.708866666667     0.265100000000     0.049      
O        O      0.293533333333     0.770566666667     0.010500000000     0.049      
O        O      0.037766666667     0.770566666667     0.011050000000     0.049      
O        O      0.103466666667     0.670833333333     0.317350000000     0.049      
O        O      0.176566666667     0.679066666667     0.300650000000     0.049      
O        O      0.130400000000     0.788000000000     0.496250000000     0.049      
O        O      0.205700000000     0.791133333333     0.484900000000     0.049      
O        O      0.126866666667     0.729433333333     0.239500000000     0.049      
O        O      0.204433333333     0.729433333333     0.238950000000     0.049      
O        O      0.063200000000     0.837500000000     0.067350000000     0.049      
O        O      0.323433333333     0.845733333333     0.050650000000     0.049      
O        O      0.036266666667     0.954666666667     0.246250000000     0.049      
O        O      0.294300000000     0.957800000000     0.234900000000     0.049      
O        O      0.039800000000     0.896100000000     0.489500000000     0.049      
O        O      0.295566666667     0.896100000000     0.488950000000     0.049      
O        O      0.229866666667     0.995833333333     0.182650000000     0.049      
O        O      0.156766666667     0.987600000000     0.199350000000     0.049      
O        O      0.202933333333     0.878666666667     0.003750000000     0.049      
O        O      0.127633333333     0.875533333333     0.015100000000     0.049      
O        O      0.206466666667     0.937233333333     0.260500000000     0.049      
O        O      0.128900000000     0.937233333333     0.261050000000     0.049      
O        O      0.270133333333     0.829166666667     0.932650000000     0.049      
O        O      0.009900000000     0.820933333333     0.949350000000     0.049      
O        O      0.297066666667     0.712000000000     0.753750000000     0.049      
O        O      0.039033333333     0.708866666667     0.765100000000     0.049      
O        O      0.293533333333     0.770566666667     0.510500000000     0.049      
O        O      0.037766666667     0.770566666667     0.511050000000     0.049      
O        O      0.103466666667     0.670833333333     0.817350000000     0.049      
O        O      0.176566666667     0.679066666667     0.800650000000     0.049      
O        O      0.130400000000     0.788000000000     0.996250000000     0.049      
O        O      0.205700000000     0.791133333333     0.984900000000     0.049      
O        O      0.126866666667     0.729433333333     0.739500000000     0.049      
O        O      0.204433333333     0.729433333333     0.738950000000     0.049      
O        O      0.063200000000     0.837500000000     0.567350000000     0.049      
O        O      0.323433333333     0.845733333333     0.550650000000     0.049      
O        O      0.036266666667     0.954666666667     0.746250000000     0.049      
O        O      0.294300000000     0.957800000000     0.734900000000     0.049      
O        O      0.039800000000     0.896100000000     0.989500000000     0.049      
O        O      0.295566666667     0.896100000000     0.988950000000     0.049      
O        O      0.229866666667     0.995833333333     0.682650000000     0.049      
O        O      0.156766666667     0.987600000000     0.699350000000     0.049      
O        O      0.202933333333     0.878666666667     0.503750000000     0.049      
O        O      0.127633333333     0.875533333333     0.515100000000     0.049      
O        O      0.206466666667     0.937233333333     0.760500000000     0.049      
O        O      0.128900000000     0.937233333333     0.761050000000     0.049      
O        O      0.603466666667     0.162500000000     0.432650000000     0.049      
O        O      0.343233333333     0.154266666667     0.449350000000     0.049      
O        O      0.630400000000     0.045333333333     0.253750000000     0.049      
O        O      0.372366666667     0.042200000000     0.265100000000     0.049      
O        O      0.626866666667     0.103900000000     0.010500000000     0.049      
O        O      0.371100000000     0.103900000000     0.011050000000     0.049      
O        O      0.436800000000     0.004166666667     0.317350000000     0.049      
O        O      0.509900000000     0.012400000000     0.300650000000     0.049      
O        O      0.463733333333     0.121333333333     0.496250000000     0.049      
O        O      0.539033333333     0.124466666667     0.484900000000     0.049      
O        O      0.460200000000     0.062766666667     0.239500000000     0.049      
O        O      0.537766666667     0.062766666667     0.238950000000     0.049      
O        O      0.396533333333     0.170833333333     0.067350000000     0.049      
O        O      0.656766666667     0.179066666667     0.050650000000     0.049      
O        O      0.369600000000     0.288000000000     0.246250000000     0.049      
O        O      0.627633333333     0.291133333333     0.234900000000     0.049      
O        O      0.373133333333     0.229433333333     0.489500000000     0.049      
O        O      0.628900000000     0.229433333333     0.488950000000     0.049      
O        O      0.563200000000     0.329166666667     0.182650000000     0.049      
O        O      0.490100000000     0.320933333333     0.199350000000     0.049      
O        O      0.536266666667     0.212000000000     0.003750000000     0.049      
O        O      0.460966666667     0.208866666667     0.015100000000     0.049      
O        O      0.539800000000     0.270566666667     0.260500000000     0.049      
O        O      0.462233333333     0.270566666667     0.261050000000     0.049      
O        O      0.603466666667     0.162500000000     0.932650000000     0.049      
O        O      0.343233333333     0.154266666667     0.949350000000     0.049      
O        O      0.630400000000     0.045333333333     0.753750000000     0.049      
O        O      0.372366666667     0.042200000000     0.765100000000     0.049      
O        O      0.626866666667     0.103900000000     0.510500000000     0.049      
O        O      0.371100000000     0.103900000000     0.511050000000     0.049      
O        O      0.436800000000     0.004166666667     0.817350000000     0.049      
O        O      0.509900000000     0.012400000000     0.800650000000     0.049      
O        O      0.463733333333     0.121333333333     0.996250000000     0.049      
O        O      0.539033333333     0.124466666667     0.984900000000     0.049      
O        O      0.460200000000     0.062766666667     0.739500000000     0.049      
O        O      0.537766666667     0.062766666667     0.738950000000     0.049      
O        O      0.396533333333     0.170833333333     0.567350000000     0.049      
O        O      0.656766666667     0.179066666667     0.550650000000     0.049      
O        O      0.369600000000     0.288000000000     0.746250000000     0.049      
O        O      0.627633333333     0.291133333333     0.734900000000     0.049      
O        O      0.373133333333     0.229433333333     0.989500000000     0.049      
O        O      0.628900000000     0.229433333333     0.988950000000     0.049      
O        O      0.563200000000     0.329166666667     0.682650000000     0.049      
O        O      0.490100000000     0.320933333333     0.699350000000     0.049      
O        O      0.536266666667     0.212000000000     0.503750000000     0.049      
O        O      0.460966666667     0.208866666667     0.515100000000     0.049      
O        O      0.539800000000     0.270566666667     0.760500000000     0.049      
O        O      0.462233333333     0.270566666667     0.761050000000     0.049      
O        O      0.603466666667     0.495833333333     0.432650000000     0.049      
O        O      0.343233333333     0.487600000000     0.449350000000     0.049      
O        O      0.630400000000     0.378666666667     0.253750000000     0.049      
O        O      0.372366666667     0.375533333333     0.265100000000     0.049      
O        O      0.626866666667     0.437233333333     0.010500000000     0.049      
O        O      0.371100000000     0.437233333333     0.011050000000     0.049      
O        O      0.436800000000     0.337500000000     0.317350000000     0.049      
O        O      0.509900000000     0.345733333333     0.300650000000     0.049      
O        O      0.463733333333     0.454666666667     0.496250000000     0.049      
O        O      0.539033333333     0.457800000000     0.484900000000     0.049      
O        O      0.460200000000     0.396100000000     0.239500000000     0.049      
O        O      0.537766666667     0.396100000000     0.238950000000     0.049      
O        O      0.396533333333     0.504166666667     0.067350000000     0.049      
O        O      0.656766666667     0.512400000000     0.050650000000     0.049      
O        O      0.369600000000     0.621333333333     0.246250000000     0.049      
O        O      0.627633333333     0.624466666667     0.234900000000     0.049      
O        O      0.373133333333     0.562766666667     0.489500000000     0.049      
O        O      0.628900000000     0.562766666667     0.488950000000     0.049      
O        O      0.563200000000     0.662500000000     0.182650000000     0.049      
O        O      0.490100000000     0.654266666667     0.199350000000     0.049      
O        O      0.536266666667     0.545333333333     0.003750000000     0.049      
O        O      0.460966666667     0.542200000000     0.015100000000     0.049      
O        O      0.539800000000     0.603900000000     0.260500000000     0.049      
O        O      0.462233333333     0.603900000000     0.261050000000     0.049      
O        O      0.603466666667     0.495833333333     0.932650000000     0.049      
O        O      0.343233333333     0.487600000000     0.949350000000     0.049      
O        O      0.630400000000     0.378666666667     0.753750000000     0.049      
O        O      0.372366666667     0.375533333333     0.765100000000     0.049      
O        O      0.626866666667     0.437233333333     0.510500000000     0.049      
O        O      0.371100000000     0.437233333333     0.511050000000     0.049      
O        O      0.436800000000     0.337500000000     0.817350000000     0.049      
O        O      0.509900000000     0.345733333333     0.800650000000     0.049      
O        O      0.463733333333     0.454666666667     0.996250000000     0.049      
O        O      0.539033333333     0.457800000000     0.984900000000     0.049      
O        O      0.460200000000     0.396100000000     0.739500000000     0.049      
O        O      0.537766666667     0.396100000000     0.738950000000     0.049      
O        O      0.396533333333     0.504166666667     0.567350000000     0.049      
O        O      0.656766666667     0.512400000000     0.550650000000     0.049      
O        O      0.369600000000     0.621333333333     0.746250000000     0.049      
O        O      0.627633333333     0.624466666667     0.734900000000     0.049      
O        O      0.373133333333     0.562766666667     0.989500000000     0.049      
O        O      0.628900000000     0.562766666667     0.988950000000     0.049      
O        O      0.563200000000     0.662500000000     0.682650000000     0.049      
O        O      0.490100000000     0.654266666667     0.699350000000     0.049      
O        O      0.536266666667     0.545333333333     0.503750000000     0.049      
O        O      0.460966666667     0.542200000000     0.515100000000     0.049      
O        O      0.539800000000     0.603900000000     0.760500000000     0.049      
O        O      0.462233333333     0.603900000000     0.761050000000     0.049      
O        O      0.603466666667     0.829166666667     0.432650000000     0.049      
O        O      0.343233333333     0.820933333333     0.449350000000     0.049      
O        O      0.630400000000     0.712000000000     0.253750000000     0.049      
O        O      0.372366666667     0.708866666667     0.265100000000     0.049      
O        O      0.626866666667     0.770566666667     0.010500000000     0.049      
O        O      0.371100000000     0.770566666667     0.011050000000     0.049      
O        O      0.436800000000     0.670833333333     0.317350000000     0.049      
O        O      0.509900000000     0.679066666667     0.300650000000     0.049      
O        O      0.463733333333     0.788000000000     0.496250000000     0.049      
O        O      0.539033333333     0.791133333333     0.484900000000     0.049      
O        O      0.460200000000     0.729433333333     0.239500000000     0.049      
O        O      0.537766666667     0.729433333333     0.238950000000     0.049      
O        O      0.396533333333     0.837500000000     0.067350000000     0.049      
O        O      0.656766666667     0.845733333333     0.050650000000     0.049      
O        O      0.369600000000     0.954666666667     0.246250000000     0.049      
O        O      0.627633333333     0.957800000000     0.234900000000     0.049      
O        O      0.373133333333     0.896100000000     0.489500000000     0.049      
O        O      0.628900000000     0.896100000000     0.488950000000     0.049      
O        O      0.563200000000     0.995833333333     0.182650000000     0.049      
O        O      0.490100000000     0.987600000000     0.199350000000     0.049      
O        O      0.536266666667     0.878666666667     0.003750000000     0.049      
O        O      0.460966666667     0.875533333333     0.015100000000     0.049      
O        O      0.539800000000     0.937233333333     0.260500000000     0.049      
O        O      0.462233333333     0.937233333333     0.261050000000     0.049      
O        O      0.603466666667     0.829166666667     0.932650000000     0.049      
O        O      0.343233333333     0.820933333333     0.949350000000     0.049      
O        O      0.630400000000     0.712000000000     0.753750000000     0.049      
O        O      0.372366666667     0.708866666667     0.765100000000     0.049      
O        O      0.626866666667     0.770566666667     0.510500000000     0.049      
O        O      0.371100000000     0.770566666667     0.511050000000     0.049      
O        O      0.436800000000     0.670833333333     0.817350000000     0.049      
O        O      0.509900000000     0.679066666667     0.800650000000     0.049      
O        O      0.463733333333     0.788000000000     0.996250000000     0.049      
O        O      0.539033333333     0.791133333333     0.984900000000     0.049      
O        O      0.460200000000     0.729433333333     0.739500000000     0.049      
O        O      0.537766666667     0.729433333333     0.738950000000     0.049      
O        O      0.396533333333     0.837500000000     0.567350000000     0.049      
O        O      0.656766666667     0.845733333333     0.550650000000     0.049      
O        O      0.369600000000     0.954666666667     0.746250000000     0.049      
O        O      0.627633333333     0.957800000000     0.734900000000     0.049      
O        O      0.373133333333     0.896100000000     0.989500000000     0.049      
O        O      0.628900000000     0.896100000000     0.988950000000     0.049      
O        O      0.563200000000     0.995833333333     0.682650000000     0.049      
O        O      0.490100000000     0.987600000000     0.699350000000     0.049      
O        O      0.536266666667     0.878666666667     0.503750000000     0.049      
O        O      0.460966666667     0.875533333333     0.515100000000     0.049      
O        O      0.539800000000     0.937233333333     0.760500000000     0.049      
O        O      0.462233333333     0.937233333333     0.761050000000     0.049      
O        O      0.936800000000     0.162500000000     0.432650000000     0.049      
O        O      0.676566666667     0.154266666667     0.449350000000     0.049      
O        O      0.963733333333     0.045333333333     0.253750000000     0.049      
O        O      0.705700000000     0.042200000000     0.265100000000     0.049      
O        O      0.960200000000     0.103900000000     0.010500000000     0.049      
O        O      0.704433333333     0.103900000000     0.011050000000     0.049      
O        O      0.770133333333     0.004166666667     0.317350000000     0.049      
O        O      0.843233333333     0.012400000000     0.300650000000     0.049      
O        O      0.797066666667     0.121333333333     0.496250000000     0.049      
O        O      0.872366666667     0.124466666667     0.484900000000     0.049      
O        O      0.793533333333     0.062766666667     0.239500000000     0.049      
O        O      0.871100000000     0.062766666667     0.238950000000     0.049      
O        O      0.729866666667     0.170833333333     0.067350000000     0.049      
O        O      0.990100000000     0.179066666667     0.050650000000     0.049      
O        O      0.702933333333     0.288000000000     0.246250000000     0.049      
O        O      0.960966666667     0.291133333333     0.234900000000     0.049      
O        O      0.706466666667     0.229433333333     0.489500000000     0.049      
O        O      0.962233333333     0.229433333333     0.488950000000     0.049      
O        O      0.896533333333     0.329166666667     0.182650000000     0.049      
O        O      0.823433333333     0.320933333333     0.199350000000     0.049      
O        O      0.869600000000     0.212000000000     0.003750000000     0.049      
O        O      0.794300000000     0.208866666667     0.015100000000     0.049      
O        O      0.873133333333     0.270566666667     0.260500000000     0.049      
O        O      0.795566666667     0.270566666667     0.261050000000     0.049      
O        O      0.936800000000     0.162500000000     0.932650000000     0.049      
O        O      0.676566666667     0.154266666667     0.949350000000     0.049      
O        O      0.963733333333     0.045333333333     0.753750000000     0.049      
O        O      0.705700000000     0.042200000000     0.765100000000     0.049      
O        O      0.960200000000     0.103900000000     0.510500000000     0.049      
O        O      0.704433333333     0.103900000000     0.511050000000     0.049      
O        O      0.770133333333     0.004166666667     0.817350000000     0.049      
O        O      0.843233333333     0.012400000000     0.800650000000     0.049      
O        O      0.797066666667     0.121333333333     0.996250000000     0.049      
O        O      0.872366666667     0.124466666667     0.984900000000     0.049      
O        O      0.793533333333     0.062766666667     0.739500000000     0.049      
O        O      0.871100000000     0.062766666667     0.738950000000     0.049      
O        O      0.729866666667     0.170833333333     0.567350000000     0.049      
O        O      0.990100000000     0.179066666667     0.550650000000     0.049      
O        O      0.702933333333     0.288000000000     0.746250000000     0.049      
O        O      0.960966666667     0.291133333333     0.734900000000     0.049      
O        O      0.706466666667     0.229433333333     0.989500000000     0.049      
O        O      0.962233333333     0.229433333333     0.988950000000     0.049      
O        O      0.896533333333     0.329166666667     0.682650000000     0.049      
O        O      0.823433333333     0.320933333333     0.699350000000     0.049      
O        O      0.869600000000     0.212000000000     0.503750000000     0.049      
O        O      0.794300000000     0.208866666667     0.515100000000     0.049      
O        O      0.873133333333     0.270566666667     0.760500000000     0.049      
O        O      0.795566666667     0.270566666667     0.761050000000     0.049      
O        O      0.936800000000     0.495833333333     0.432650000000     0.049      
O        O      0.676566666667     0.487600000000     0.449350000000     0.049      
O        O      0.963733333333     0.378666666667     0.253750000000     0.049      
O        O      0.705700000000     0.375533333333     0.265100000000     0.049      
O        O      0.960200000000     0.437233333333     0.010500000000     0.049      
O        O      0.704433333333     0.437233333333     0.011050000000     0.049      
O        O      0.770133333333     0.337500000000     0.317350000000     0.049      
O        O      0.843233333333     0.345733333333     0.300650000000     0.049      
O        O      0.797066666667     0.454666666667     0.496250000000     0.049      
O        O      0.872366666667     0.457800000000     0.484900000000     0.049      
O        O      0.793533333333     0.396100000000     0.239500000000     0.049      
O        O      0.871100000000     0.396100000000     0.238950000000     0.049      
O        O      0.729866666667     0.504166666667     0.067350000000     0.049      
O        O      0.990100000000     0.512400000000     0.050650000000     0.049      
O        O      0.702933333333     0.621333333333     0.246250000000     0.049      
O        O      0.960966666667     0.624466666667     0.234900000000     0.049      
O        O      0.706466666667     0.562766666667     0.489500000000     0.049      
O        O      0.962233333333     0.562766666667     0.488950000000     0.049      
O        O      0.896533333333     0.662500000000     0.182650000000     0.049      
O        O      0.823433333333     0.654266666667     0.199350000000     0.049      
O        O      0.869600000000     0.545333333333     0.003750000000     0.049      
O        O      0.794300000000     0.542200000000     0.015100000000     0.049      
O        O      0.873133333333     0.603900000000     0.260500000000     0.049      
O        O      0.795566666667     0.603900000000     0.261050000000     0.049      
O        O      0.936800000000     0.495833333333     0.932650000000     0.049      
O        O      0.676566666667     0.487600000000     0.949350000000     0.049      
O        O      0.963733333333     0.378666666667     0.753750000000     0.049      
O        O      0.705700000000     0.375533333333     0.765100000000     0.049      
O        O      0.960200000000     0.437233333333     0.510500000000     0.049      
O        O      0.704433333333     0.437233333333     0.511050000000     0.049      
O        O      0.770133333333     0.337500000000     0.817350000000     0.049      
O        O      0.843233333333     0.345733333333     0.800650000000     0.049      
O        O      0.797066666667     0.454666666667     0.996250000000     0.049      
O        O      0.872366666667     0.457800000000     0.984900000000     0.049      
O        O      0.793533333333     0.396100000000     0.739500000000     0.049      
O        O      0.871100000000     0.396100000000     0.738950000000     0.049      
O        O      0.729866666667     0.504166666667     0.567350000000     0.049      
O        O      0.990100000000     0.512400000000     0.550650000000     0.049      
O        O      0.702933333333     0.621333333333     0.746250000000     0.049      
O        O      0.960966666667     0.624466666667     0.734900000000     0.049      
O        O      0.706466666667     0.562766666667     0.989500000000     0.049      
O        O      0.962233333333     0.562766666667     0.988950000000     0.049      
O        O      0.896533333333     0.662500000000     0.682650000000     0.049      
O        O      0.823433333333     0.654266666667     0.699350000000     0.049      
O        O      0.869600000000     0.545333333333     0.503750000000     0.049      
O        O      0.794300000000     0.542200000000     0.515100000000     0.049      
O        O      0.873133333333     0.603900000000     0.760500000000     0.049      
O        O      0.795566666667     0.603900000000     0.761050000000     0.049      
O        O      0.936800000000     0.829166666667     0.432650000000     0.049      
O        O      0.676566666667     0.820933333333     0.449350000000     0.049      
O        O      0.963733333333     0.712000000000     0.253750000000     0.049      
O        O      0.705700000000     0.708866666667     0.265100000000     0.049      
O        O      0.960200000000     0.770566666667     0.010500000000     0.049      
O        O      0.704433333333     0.770566666667     0.011050000000     0.049      
O        O      0.770133333333     0.670833333333     0.317350000000     0.049      
O        O      0.843233333333     0.679066666667     0.300650000000     0.049      
O        O      0.797066666667     0.788000000000     0.496250000000     0.049      
O        O      0.872366666667     0.791133333333     0.484900000000     0.049      
O        O      0.793533333333     0.729433333333     0.239500000000     0.049      
O        O      0.871100000000     0.729433333333     0.238950000000     0.049      
O        O      0.729866666667     0.837500000000     0.067350000000     0.049      
O        O      0.990100000000     0.845733333333     0.050650000000     0.049      
O        O      0.702933333333     0.954666666667     0.246250000000     0.049      
O        O      0.960966666667     0.957800000000     0.234900000000     0.049      
O        O      0.706466666667     0.896100000000     0.489500000000     0.049      
O        O      0.962233333333     0.896100000000     0.488950000000     0.049      
O        O      0.896533333333     0.995833333333     0.182650000000     0.049      
O        O      0.823433333333     0.987600000000     0.199350000000     0.049      
O        O      0.869600000000     0.878666666667     0.003750000000     0.049      
O        O      0.794300000000     0.875533333333     0.015100000000     0.049      
O        O      0.873133333333     0.937233333333     0.260500000000     0.049      
O        O      0.795566666667     0.937233333333     0.261050000000     0.049      
O        O      0.936800000000     0.829166666667     0.932650000000     0.049      
O        O      0.676566666667     0.820933333333     0.949350000000     0.049      
O        O      0.963733333333     0.712000000000     0.753750000000     0.049      
O        O      0.705700000000     0.708866666667     0.765100000000     0.049      
O        O      0.960200000000     0.770566666667     0.510500000000     0.049      
O        O      0.704433333333     0.770566666667     0.511050000000     0.049      
O        O      0.770133333333     0.670833333333     0.817350000000     0.049      
O        O      0.843233333333     0.679066666667     0.800650000000     0.049      
O        O      0.797066666667     0.788000000000     0.996250000000     0.049      
O        O      0.872366666667     0.791133333333     0.984900000000     0.049      
O        O      0.793533333333     0.729433333333     0.739500000000     0.049      
O        O      0.871100000000     0.729433333333     0.738950000000     0.049      
O        O      0.729866666667     0.837500000000     0.567350000000     0.049      
O        O      0.990100000000     0.845733333333     0.550650000000     0.049      
O        O      0.702933333333     0.954666666667     0.746250000000     0.049      
O        O      0.960966666667     0.957800000000     0.734900000000     0.049      
O        O      0.706466666667     0.896100000000     0.989500000000     0.049      
O        O      0.962233333333     0.896100000000     0.988950000000     0.049      
O        O      0.896533333333     0.995833333333     0.682650000000     0.049      
O        O      0.823433333333     0.987600000000     0.699350000000     0.049      
O        O      0.869600000000     0.878666666667     0.503750000000     0.049      
O        O      0.794300000000     0.875533333333     0.515100000000     0.049      
O        O      0.873133333333     0.937233333333     0.760500000000     0.049      
O        O      0.795566666667     0.937233333333     0.761050000000     0.049      


