data_KIYQIU_clean

_audit_creation_method RASPA-1.0
_audit_creation_date 2025-9-8
_audit_author_name ''

_cell_length_a    36.54
_cell_length_b    28.4214
_cell_length_c    42.8502
_cell_angle_alpha 105.093
_cell_angle_beta  90
_cell_angle_gamma 90
_cell_volume      42965.6

_symmetry_cell_setting          triclinic
_symmetry_space_group_name_Hall 'P 1'
_symmetry_space_group_name_H-M  'P 1'
_symmetry_Int_Tables_number     1

_symmetry_equiv_pos_as_xyz 'x,y,z'

loop_
_atom_site_label
_atom_site_type_symbol
_atom_site_fract_x
_atom_site_fract_y
_atom_site_fract_z
_atom_site_charge
Zn       Zn     0.171833333333     0.422945000000     0.052636666667     1.222      
Zn       Zn     0.005166666667     0.327055000000     0.114030000000     1.222      
Zn       Zn     0.252700000000     0.219005000000     0.266363333333     1.225      
Zn       Zn     0.247300000000     0.469005000000     0.099696666667     1.225      
Zn       Zn     0.086033333333     0.030995000000     0.233636666667     1.225      
Zn       Zn     0.080633333333     0.280995000000     0.066970000000     1.225      
Zn       Zn     0.328166666667     0.172945000000     0.219303333333     1.222      
Zn       Zn     0.161500000000     0.077055000000     0.280696666667     1.222      
H        H      0.316133333333     0.372350000000     0.035800000000     0.022      
H        H      0.181933333333     0.432900000000     0.167800000000     0.081      
H        H      0.224633333333     0.309900000000     0.326066666667    -0.008      
H        H      0.275366666667     0.059900000000     0.159400000000    -0.007      
H        H      0.062333333333     0.413500000000     0.289133333333     0.026      
H        H      0.149466666667     0.377650000000     0.130866666667     0.024      
H        H      0.105300000000     0.110300000000     0.155533333333     0.071      
H        H      0.312133333333     0.267400000000     0.159600000000     0.005      
H        H      0.017200000000     0.127650000000     0.297533333333     0.022      
H        H      0.228033333333     0.389700000000     0.177800000000     0.071      
H        H      0.183866666667     0.122350000000     0.202466666667     0.024      
H        H      0.061366666667     0.360300000000     0.322200000000     0.069      
H        H      0.271966666667     0.139700000000     0.011133333333     0.069      
H        H      0.271000000000     0.086500000000     0.044200000000     0.026      
H        H      0.015266666667     0.317100000000     0.332200000000     0.085      
H        H      0.021200000000     0.232600000000     0.173733333333     0.005      
H        H      0.104333333333     0.163500000000     0.122466666667     0.024      
H        H      0.318066666667     0.182900000000     0.001133333333     0.085      
H        H      0.151400000000     0.067100000000     0.165533333333     0.081      
H        H      0.145466666667     0.482600000000     0.007066666667     0.006      
H        H      0.057966666667     0.440100000000     0.173933333333    -0.007      
H        H      0.229000000000     0.336500000000     0.210866666667     0.024      
H        H      0.187866666667     0.017400000000     0.326266666667     0.006      
H        H      0.108700000000     0.190100000000     0.007266666667    -0.008      
C        C      0.156533333333     0.433450000000     0.169166666667    -0.097      
C        C      0.195733333333     0.099150000000     0.186266666667     0.074      
C        C      0.274500000000     0.263650000000     0.211133333333     0.429      
C        C      0.250000000000     0.061950000000     0.160333333333     0.102      
C        C      0.010133333333     0.183450000000     0.002500000000    -0.106      
C        C      0.025933333333     0.217050000000     0.026566666667     0.012      
C        C      0.250000000000     0.311950000000     0.327000000000     0.103      
C        C      0.228366666667     0.047150000000     0.023300000000    -0.158      
C        C      0.254900000000     0.114600000000     0.007833333333    -0.068      
C        C      0.204666666667     0.042850000000     0.330433333333     0.106      
C        C      0.140733333333     0.467050000000     0.193233333333     0.01       
C        C      0.245100000000     0.364600000000     0.174500000000    -0.074      
C        C      0.246100000000     0.333050000000     0.194333333333     0.058      
C        C      0.107833333333     0.486350000000     0.288866666667     0.43       
C        C      0.058833333333     0.236350000000     0.122200000000     0.429      
C        C      0.233666666667     0.097450000000     0.184400000000    -0.159      
C        C      0.083333333333     0.188050000000     0.006333333333     0.103      
C        C      0.077833333333     0.365900000000     0.125233333333     0.438      
C        C      0.104966666667     0.452850000000     0.310033333333    -0.158      
C        C      0.079433333333     0.416950000000     0.305666666667     0.054      
C        C      0.137600000000     0.400850000000     0.147066666667     0.074      
C        C      0.171100000000     0.495500000000     0.114366666667     0.295      
C        C      0.088833333333     0.115900000000     0.291900000000     0.439      
C        C      0.255500000000     0.134100000000     0.208100000000     0.438      
C        C      0.226533333333     0.139800000000     0.294366666667     0.354      
C        C      0.087233333333     0.166950000000     0.139000000000     0.058      
C        C      0.229966666667     0.107450000000     0.316600000000    -0.032      
C        C      0.067000000000     0.152550000000     0.315600000000    -0.161      
C        C      0.192600000000     0.032950000000     0.140100000000     0.01       
C        C      0.103366666667     0.392550000000     0.016733333333    -0.032      
C        C      0.328900000000     0.245500000000     0.281033333333     0.294      
C        C      0.271633333333     0.297150000000     0.189966666667    -0.163      
C        C      0.059866666667     0.110200000000     0.205633333333     0.353      
C        C      0.244500000000     0.384100000000     0.041433333333     0.439      
C        C      0.270033333333     0.357450000000     0.149933333333    -0.028      
C        C      0.266333333333     0.347450000000     0.017733333333    -0.161      
C        C      0.304266666667     0.349150000000     0.019600000000     0.08       
C        C      0.099666666667     0.402550000000     0.148933333333    -0.159      
C        C      0.295333333333     0.292850000000     0.163766666667     0.111      
C        C      0.029066666667     0.150850000000     0.313733333333     0.08       
C        C      0.323200000000     0.316550000000     0.330833333333    -0.106      
C        C      0.078433333333     0.385400000000     0.325500000000    -0.068      
C        C      0.273466666667     0.389800000000     0.127700000000     0.353      
C        C      0.162233333333     0.004500000000     0.218966666667     0.295      
C        C      0.004433333333     0.254500000000     0.052300000000     0.294      
C        C      0.038000000000     0.207150000000     0.169566666667     0.111      
C        C      0.176800000000     0.066550000000     0.164166666667    -0.097      
C        C      0.061700000000     0.202850000000     0.143366666667    -0.163      
C        C      0.106800000000     0.360200000000     0.038966666667     0.354      
C        C      0.253900000000     0.083050000000     0.027666666667     0.054      
C        C      0.128666666667     0.457150000000     0.002900000000     0.106      
C        C      0.063300000000     0.142550000000     0.183400000000    -0.028      
C        C      0.088233333333     0.135400000000     0.158833333333    -0.074      
C        C      0.307400000000     0.282950000000     0.306766666667     0.012      
C        C      0.083333333333     0.438050000000     0.173000000000     0.102      
C        C      0.225500000000     0.013650000000     0.044466666667     0.43       
N        N      0.229433333333     0.029350000000     0.137633333333    -0.225      
N        N      0.062766666667     0.220650000000     0.029033333333    -0.225      
N        N      0.295600000000     0.321550000000     0.144933333333    -0.237      
N        N      0.128933333333     0.428450000000     0.021733333333    -0.236      
N        N      0.037733333333     0.178450000000     0.188400000000    -0.237      
N        N      0.204400000000     0.071550000000     0.311600000000    -0.236      
N        N      0.103900000000     0.470650000000     0.195700000000    -0.225      
N        N      0.270566666667     0.279350000000     0.304300000000    -0.225      
O        O      0.084533333333     0.328250000000     0.038766666667    -0.438      
O        O      0.200833333333     0.481900000000     0.035400000000    -0.431      
O        O      0.032100000000     0.118450000000     0.224066666667    -0.419      
O        O      0.088966666667     0.482550000000     0.264766666667    -0.45       
O        O      0.092566666667     0.332350000000     0.104600000000    -0.493      
O        O      0.074100000000     0.082350000000     0.271266666667    -0.494      
O        O      0.299166666667     0.231900000000     0.202066666667    -0.43       
O        O      0.248800000000     0.171750000000     0.294566666667    -0.438      
O        O      0.244366666667     0.017450000000     0.068566666667    -0.45       
O        O      0.138266666667     0.001000000000     0.107666666667    -0.28       
O        O      0.134566666667     0.368450000000     0.057400000000    -0.42       
O        O      0.132500000000     0.018100000000     0.297933333333    -0.431      
O        O      0.023500000000     0.290850000000     0.066466666667    -0.527      
O        O      0.255633333333     0.267450000000     0.235233333333    -0.45       
O        O      0.043133333333     0.372800000000     0.127200000000    -0.495      
O        O      0.195066666667     0.499000000000     0.225666666667    -0.28       
O        O      0.301233333333     0.381550000000     0.109266666667    -0.419      
O        O      0.143166666667     0.040850000000     0.233133333333    -0.527      
O        O      0.304933333333     0.249000000000     0.059000000000    -0.279      
O        O      0.240766666667     0.167650000000     0.228733333333    -0.493      
O        O      0.259233333333     0.417650000000     0.062066666667    -0.494      
O        O      0.309833333333     0.209150000000     0.266866666667    -0.527      
O        O      0.209800000000     0.377200000000     0.039466666667    -0.495      
O        O      0.028400000000     0.251000000000     0.274333333333    -0.279      
O        O      0.123533333333     0.122800000000     0.293866666667    -0.495      
O        O      0.034166666667     0.268100000000     0.131266666667    -0.43       
O        O      0.190166666667     0.459150000000     0.100200000000    -0.527      
O        O      0.198766666667     0.131550000000     0.275933333333    -0.42       
O        O      0.251200000000     0.421750000000     0.127900000000    -0.437      
O        O      0.290200000000     0.127200000000     0.206133333333    -0.495      
O        O      0.082133333333     0.078250000000     0.205433333333    -0.437      
O        O      0.077700000000     0.232550000000     0.098100000000    -0.45       
Zn       Zn     0.171833333333     0.422945000000     0.385970000000     1.222      
Zn       Zn     0.005166666667     0.327055000000     0.447363333333     1.222      
Zn       Zn     0.252700000000     0.219005000000     0.599696666667     1.225      
Zn       Zn     0.247300000000     0.469005000000     0.433030000000     1.225      
Zn       Zn     0.086033333333     0.030995000000     0.566970000000     1.225      
Zn       Zn     0.080633333333     0.280995000000     0.400303333333     1.225      
Zn       Zn     0.328166666667     0.172945000000     0.552636666667     1.222      
Zn       Zn     0.161500000000     0.077055000000     0.614030000000     1.222      
H        H      0.316133333333     0.372350000000     0.369133333333     0.022      
H        H      0.181933333333     0.432900000000     0.501133333333     0.081      
H        H      0.224633333333     0.309900000000     0.659400000000    -0.008      
H        H      0.275366666667     0.059900000000     0.492733333333    -0.007      
H        H      0.062333333333     0.413500000000     0.622466666667     0.026      
H        H      0.149466666667     0.377650000000     0.464200000000     0.024      
H        H      0.105300000000     0.110300000000     0.488866666667     0.071      
H        H      0.312133333333     0.267400000000     0.492933333333     0.005      
H        H      0.017200000000     0.127650000000     0.630866666667     0.022      
H        H      0.228033333333     0.389700000000     0.511133333333     0.071      
H        H      0.183866666667     0.122350000000     0.535800000000     0.024      
H        H      0.061366666667     0.360300000000     0.655533333333     0.069      
H        H      0.271966666667     0.139700000000     0.344466666667     0.069      
H        H      0.271000000000     0.086500000000     0.377533333333     0.026      
H        H      0.015266666667     0.317100000000     0.665533333333     0.085      
H        H      0.021200000000     0.232600000000     0.507066666667     0.005      
H        H      0.104333333333     0.163500000000     0.455800000000     0.024      
H        H      0.318066666667     0.182900000000     0.334466666667     0.085      
H        H      0.151400000000     0.067100000000     0.498866666667     0.081      
H        H      0.145466666667     0.482600000000     0.340400000000     0.006      
H        H      0.057966666667     0.440100000000     0.507266666667    -0.007      
H        H      0.229000000000     0.336500000000     0.544200000000     0.024      
H        H      0.187866666667     0.017400000000     0.659600000000     0.006      
H        H      0.108700000000     0.190100000000     0.340600000000    -0.008      
C        C      0.156533333333     0.433450000000     0.502500000000    -0.097      
C        C      0.195733333333     0.099150000000     0.519600000000     0.074      
C        C      0.274500000000     0.263650000000     0.544466666667     0.429      
C        C      0.250000000000     0.061950000000     0.493666666667     0.102      
C        C      0.010133333333     0.183450000000     0.335833333333    -0.106      
C        C      0.025933333333     0.217050000000     0.359900000000     0.012      
C        C      0.250000000000     0.311950000000     0.660333333333     0.103      
C        C      0.228366666667     0.047150000000     0.356633333333    -0.158      
C        C      0.254900000000     0.114600000000     0.341166666667    -0.068      
C        C      0.204666666667     0.042850000000     0.663766666667     0.106      
C        C      0.140733333333     0.467050000000     0.526566666667     0.01       
C        C      0.245100000000     0.364600000000     0.507833333333    -0.074      
C        C      0.246100000000     0.333050000000     0.527666666667     0.058      
C        C      0.107833333333     0.486350000000     0.622200000000     0.43       
C        C      0.058833333333     0.236350000000     0.455533333333     0.429      
C        C      0.233666666667     0.097450000000     0.517733333333    -0.159      
C        C      0.083333333333     0.188050000000     0.339666666667     0.103      
C        C      0.077833333333     0.365900000000     0.458566666667     0.438      
C        C      0.104966666667     0.452850000000     0.643366666667    -0.158      
C        C      0.079433333333     0.416950000000     0.639000000000     0.054      
C        C      0.137600000000     0.400850000000     0.480400000000     0.074      
C        C      0.171100000000     0.495500000000     0.447700000000     0.295      
C        C      0.088833333333     0.115900000000     0.625233333333     0.439      
C        C      0.255500000000     0.134100000000     0.541433333333     0.438      
C        C      0.226533333333     0.139800000000     0.627700000000     0.354      
C        C      0.087233333333     0.166950000000     0.472333333333     0.058      
C        C      0.229966666667     0.107450000000     0.649933333333    -0.032      
C        C      0.067000000000     0.152550000000     0.648933333333    -0.161      
C        C      0.192600000000     0.032950000000     0.473433333333     0.01       
C        C      0.103366666667     0.392550000000     0.350066666667    -0.032      
C        C      0.328900000000     0.245500000000     0.614366666667     0.294      
C        C      0.271633333333     0.297150000000     0.523300000000    -0.163      
C        C      0.059866666667     0.110200000000     0.538966666667     0.353      
C        C      0.244500000000     0.384100000000     0.374766666667     0.439      
C        C      0.270033333333     0.357450000000     0.483266666667    -0.028      
C        C      0.266333333333     0.347450000000     0.351066666667    -0.161      
C        C      0.304266666667     0.349150000000     0.352933333333     0.08       
C        C      0.099666666667     0.402550000000     0.482266666667    -0.159      
C        C      0.295333333333     0.292850000000     0.497100000000     0.111      
C        C      0.029066666667     0.150850000000     0.647066666667     0.08       
C        C      0.323200000000     0.316550000000     0.664166666667    -0.106      
C        C      0.078433333333     0.385400000000     0.658833333333    -0.068      
C        C      0.273466666667     0.389800000000     0.461033333333     0.353      
C        C      0.162233333333     0.004500000000     0.552300000000     0.295      
C        C      0.004433333333     0.254500000000     0.385633333333     0.294      
C        C      0.038000000000     0.207150000000     0.502900000000     0.111      
C        C      0.176800000000     0.066550000000     0.497500000000    -0.097      
C        C      0.061700000000     0.202850000000     0.476700000000    -0.163      
C        C      0.106800000000     0.360200000000     0.372300000000     0.354      
C        C      0.253900000000     0.083050000000     0.361000000000     0.054      
C        C      0.128666666667     0.457150000000     0.336233333333     0.106      
C        C      0.063300000000     0.142550000000     0.516733333333    -0.028      
C        C      0.088233333333     0.135400000000     0.492166666667    -0.074      
C        C      0.307400000000     0.282950000000     0.640100000000     0.012      
C        C      0.083333333333     0.438050000000     0.506333333333     0.102      
C        C      0.225500000000     0.013650000000     0.377800000000     0.43       
N        N      0.229433333333     0.029350000000     0.470966666667    -0.225      
N        N      0.062766666667     0.220650000000     0.362366666667    -0.225      
N        N      0.295600000000     0.321550000000     0.478266666667    -0.237      
N        N      0.128933333333     0.428450000000     0.355066666667    -0.236      
N        N      0.037733333333     0.178450000000     0.521733333333    -0.237      
N        N      0.204400000000     0.071550000000     0.644933333333    -0.236      
N        N      0.103900000000     0.470650000000     0.529033333333    -0.225      
N        N      0.270566666667     0.279350000000     0.637633333333    -0.225      
O        O      0.084533333333     0.328250000000     0.372100000000    -0.438      
O        O      0.200833333333     0.481900000000     0.368733333333    -0.431      
O        O      0.032100000000     0.118450000000     0.557400000000    -0.419      
O        O      0.088966666667     0.482550000000     0.598100000000    -0.45       
O        O      0.092566666667     0.332350000000     0.437933333333    -0.493      
O        O      0.074100000000     0.082350000000     0.604600000000    -0.494      
O        O      0.299166666667     0.231900000000     0.535400000000    -0.43       
O        O      0.248800000000     0.171750000000     0.627900000000    -0.438      
O        O      0.244366666667     0.017450000000     0.401900000000    -0.45       
O        O      0.138266666667     0.001000000000     0.441000000000    -0.28       
O        O      0.134566666667     0.368450000000     0.390733333333    -0.42       
O        O      0.132500000000     0.018100000000     0.631266666667    -0.431      
O        O      0.023500000000     0.290850000000     0.399800000000    -0.527      
O        O      0.255633333333     0.267450000000     0.568566666667    -0.45       
O        O      0.043133333333     0.372800000000     0.460533333333    -0.495      
O        O      0.195066666667     0.499000000000     0.559000000000    -0.28       
O        O      0.301233333333     0.381550000000     0.442600000000    -0.419      
O        O      0.143166666667     0.040850000000     0.566466666667    -0.527      
O        O      0.304933333333     0.249000000000     0.392333333333    -0.279      
O        O      0.240766666667     0.167650000000     0.562066666667    -0.493      
O        O      0.259233333333     0.417650000000     0.395400000000    -0.494      
O        O      0.309833333333     0.209150000000     0.600200000000    -0.527      
O        O      0.209800000000     0.377200000000     0.372800000000    -0.495      
O        O      0.028400000000     0.251000000000     0.607666666667    -0.279      
O        O      0.123533333333     0.122800000000     0.627200000000    -0.495      
O        O      0.034166666667     0.268100000000     0.464600000000    -0.43       
O        O      0.190166666667     0.459150000000     0.433533333333    -0.527      
O        O      0.198766666667     0.131550000000     0.609266666667    -0.42       
O        O      0.251200000000     0.421750000000     0.461233333333    -0.437      
O        O      0.290200000000     0.127200000000     0.539466666667    -0.495      
O        O      0.082133333333     0.078250000000     0.538766666667    -0.437      
O        O      0.077700000000     0.232550000000     0.431433333333    -0.45       
Zn       Zn     0.171833333333     0.422945000000     0.719303333333     1.222      
Zn       Zn     0.005166666667     0.327055000000     0.780696666667     1.222      
Zn       Zn     0.252700000000     0.219005000000     0.933030000000     1.225      
Zn       Zn     0.247300000000     0.469005000000     0.766363333333     1.225      
Zn       Zn     0.086033333333     0.030995000000     0.900303333333     1.225      
Zn       Zn     0.080633333333     0.280995000000     0.733636666667     1.225      
Zn       Zn     0.328166666667     0.172945000000     0.885970000000     1.222      
Zn       Zn     0.161500000000     0.077055000000     0.947363333333     1.222      
H        H      0.316133333333     0.372350000000     0.702466666667     0.022      
H        H      0.181933333333     0.432900000000     0.834466666667     0.081      
H        H      0.224633333333     0.309900000000     0.992733333333    -0.008      
H        H      0.275366666667     0.059900000000     0.826066666667    -0.007      
H        H      0.062333333333     0.413500000000     0.955800000000     0.026      
H        H      0.149466666667     0.377650000000     0.797533333333     0.024      
H        H      0.105300000000     0.110300000000     0.822200000000     0.071      
H        H      0.312133333333     0.267400000000     0.826266666667     0.005      
H        H      0.017200000000     0.127650000000     0.964200000000     0.022      
H        H      0.228033333333     0.389700000000     0.844466666667     0.071      
H        H      0.183866666667     0.122350000000     0.869133333333     0.024      
H        H      0.061366666667     0.360300000000     0.988866666667     0.069      
H        H      0.271966666667     0.139700000000     0.677800000000     0.069      
H        H      0.271000000000     0.086500000000     0.710866666667     0.026      
H        H      0.015266666667     0.317100000000     0.998866666667     0.085      
H        H      0.021200000000     0.232600000000     0.840400000000     0.005      
H        H      0.104333333333     0.163500000000     0.789133333333     0.024      
H        H      0.318066666667     0.182900000000     0.667800000000     0.085      
H        H      0.151400000000     0.067100000000     0.832200000000     0.081      
H        H      0.145466666667     0.482600000000     0.673733333333     0.006      
H        H      0.057966666667     0.440100000000     0.840600000000    -0.007      
H        H      0.229000000000     0.336500000000     0.877533333333     0.024      
H        H      0.187866666667     0.017400000000     0.992933333333     0.006      
H        H      0.108700000000     0.190100000000     0.673933333333    -0.008      
C        C      0.156533333333     0.433450000000     0.835833333333    -0.097      
C        C      0.195733333333     0.099150000000     0.852933333333     0.074      
C        C      0.274500000000     0.263650000000     0.877800000000     0.429      
C        C      0.250000000000     0.061950000000     0.827000000000     0.102      
C        C      0.010133333333     0.183450000000     0.669166666667    -0.106      
C        C      0.025933333333     0.217050000000     0.693233333333     0.012      
C        C      0.250000000000     0.311950000000     0.993666666667     0.103      
C        C      0.228366666667     0.047150000000     0.689966666667    -0.158      
C        C      0.254900000000     0.114600000000     0.674500000000    -0.068      
C        C      0.204666666667     0.042850000000     0.997100000000     0.106      
C        C      0.140733333333     0.467050000000     0.859900000000     0.01       
C        C      0.245100000000     0.364600000000     0.841166666667    -0.074      
C        C      0.246100000000     0.333050000000     0.861000000000     0.058      
C        C      0.107833333333     0.486350000000     0.955533333333     0.43       
C        C      0.058833333333     0.236350000000     0.788866666667     0.429      
C        C      0.233666666667     0.097450000000     0.851066666667    -0.159      
C        C      0.083333333333     0.188050000000     0.673000000000     0.103      
C        C      0.077833333333     0.365900000000     0.791900000000     0.438      
C        C      0.104966666667     0.452850000000     0.976700000000    -0.158      
C        C      0.079433333333     0.416950000000     0.972333333333     0.054      
C        C      0.137600000000     0.400850000000     0.813733333333     0.074      
C        C      0.171100000000     0.495500000000     0.781033333333     0.295      
C        C      0.088833333333     0.115900000000     0.958566666667     0.439      
C        C      0.255500000000     0.134100000000     0.874766666667     0.438      
C        C      0.226533333333     0.139800000000     0.961033333333     0.354      
C        C      0.087233333333     0.166950000000     0.805666666667     0.058      
C        C      0.229966666667     0.107450000000     0.983266666667    -0.032      
C        C      0.067000000000     0.152550000000     0.982266666667    -0.161      
C        C      0.192600000000     0.032950000000     0.806766666667     0.01       
C        C      0.103366666667     0.392550000000     0.683400000000    -0.032      
C        C      0.328900000000     0.245500000000     0.947700000000     0.294      
C        C      0.271633333333     0.297150000000     0.856633333333    -0.163      
C        C      0.059866666667     0.110200000000     0.872300000000     0.353      
C        C      0.244500000000     0.384100000000     0.708100000000     0.439      
C        C      0.270033333333     0.357450000000     0.816600000000    -0.028      
C        C      0.266333333333     0.347450000000     0.684400000000    -0.161      
C        C      0.304266666667     0.349150000000     0.686266666667     0.08       
C        C      0.099666666667     0.402550000000     0.815600000000    -0.159      
C        C      0.295333333333     0.292850000000     0.830433333333     0.111      
C        C      0.029066666667     0.150850000000     0.980400000000     0.08       
C        C      0.323200000000     0.316550000000     0.997500000000    -0.106      
C        C      0.078433333333     0.385400000000     0.992166666667    -0.068      
C        C      0.273466666667     0.389800000000     0.794366666667     0.353      
C        C      0.162233333333     0.004500000000     0.885633333333     0.295      
C        C      0.004433333333     0.254500000000     0.718966666667     0.294      
C        C      0.038000000000     0.207150000000     0.836233333333     0.111      
C        C      0.176800000000     0.066550000000     0.830833333333    -0.097      
C        C      0.061700000000     0.202850000000     0.810033333333    -0.163      
C        C      0.106800000000     0.360200000000     0.705633333333     0.354      
C        C      0.253900000000     0.083050000000     0.694333333333     0.054      
C        C      0.128666666667     0.457150000000     0.669566666667     0.106      
C        C      0.063300000000     0.142550000000     0.850066666667    -0.028      
C        C      0.088233333333     0.135400000000     0.825500000000    -0.074      
C        C      0.307400000000     0.282950000000     0.973433333333     0.012      
C        C      0.083333333333     0.438050000000     0.839666666667     0.102      
C        C      0.225500000000     0.013650000000     0.711133333333     0.43       
N        N      0.229433333333     0.029350000000     0.804300000000    -0.225      
N        N      0.062766666667     0.220650000000     0.695700000000    -0.225      
N        N      0.295600000000     0.321550000000     0.811600000000    -0.237      
N        N      0.128933333333     0.428450000000     0.688400000000    -0.236      
N        N      0.037733333333     0.178450000000     0.855066666667    -0.237      
N        N      0.204400000000     0.071550000000     0.978266666667    -0.236      
N        N      0.103900000000     0.470650000000     0.862366666667    -0.225      
N        N      0.270566666667     0.279350000000     0.970966666667    -0.225      
O        O      0.084533333333     0.328250000000     0.705433333333    -0.438      
O        O      0.200833333333     0.481900000000     0.702066666667    -0.431      
O        O      0.032100000000     0.118450000000     0.890733333333    -0.419      
O        O      0.088966666667     0.482550000000     0.931433333333    -0.45       
O        O      0.092566666667     0.332350000000     0.771266666667    -0.493      
O        O      0.074100000000     0.082350000000     0.937933333333    -0.494      
O        O      0.299166666667     0.231900000000     0.868733333333    -0.43       
O        O      0.248800000000     0.171750000000     0.961233333333    -0.438      
O        O      0.244366666667     0.017450000000     0.735233333333    -0.45       
O        O      0.138266666667     0.001000000000     0.774333333333    -0.28       
O        O      0.134566666667     0.368450000000     0.724066666667    -0.42       
O        O      0.132500000000     0.018100000000     0.964600000000    -0.431      
O        O      0.023500000000     0.290850000000     0.733133333333    -0.527      
O        O      0.255633333333     0.267450000000     0.901900000000    -0.45       
O        O      0.043133333333     0.372800000000     0.793866666667    -0.495      
O        O      0.195066666667     0.499000000000     0.892333333333    -0.28       
O        O      0.301233333333     0.381550000000     0.775933333333    -0.419      
O        O      0.143166666667     0.040850000000     0.899800000000    -0.527      
O        O      0.304933333333     0.249000000000     0.725666666667    -0.279      
O        O      0.240766666667     0.167650000000     0.895400000000    -0.493      
O        O      0.259233333333     0.417650000000     0.728733333333    -0.494      
O        O      0.309833333333     0.209150000000     0.933533333333    -0.527      
O        O      0.209800000000     0.377200000000     0.706133333333    -0.495      
O        O      0.028400000000     0.251000000000     0.941000000000    -0.279      
O        O      0.123533333333     0.122800000000     0.960533333333    -0.495      
O        O      0.034166666667     0.268100000000     0.797933333333    -0.43       
O        O      0.190166666667     0.459150000000     0.766866666667    -0.527      
O        O      0.198766666667     0.131550000000     0.942600000000    -0.42       
O        O      0.251200000000     0.421750000000     0.794566666667    -0.437      
O        O      0.290200000000     0.127200000000     0.872800000000    -0.495      
O        O      0.082133333333     0.078250000000     0.872100000000    -0.437      
O        O      0.077700000000     0.232550000000     0.764766666667    -0.45       
Zn       Zn     0.171833333333     0.922945000000     0.052636666667     1.222      
Zn       Zn     0.005166666667     0.827055000000     0.114030000000     1.222      
Zn       Zn     0.252700000000     0.719005000000     0.266363333333     1.225      
Zn       Zn     0.247300000000     0.969005000000     0.099696666667     1.225      
Zn       Zn     0.086033333333     0.530995000000     0.233636666667     1.225      
Zn       Zn     0.080633333333     0.780995000000     0.066970000000     1.225      
Zn       Zn     0.328166666667     0.672945000000     0.219303333333     1.222      
Zn       Zn     0.161500000000     0.577055000000     0.280696666667     1.222      
H        H      0.316133333333     0.872350000000     0.035800000000     0.022      
H        H      0.181933333333     0.932900000000     0.167800000000     0.081      
H        H      0.224633333333     0.809900000000     0.326066666667    -0.008      
H        H      0.275366666667     0.559900000000     0.159400000000    -0.007      
H        H      0.062333333333     0.913500000000     0.289133333333     0.026      
H        H      0.149466666667     0.877650000000     0.130866666667     0.024      
H        H      0.105300000000     0.610300000000     0.155533333333     0.071      
H        H      0.312133333333     0.767400000000     0.159600000000     0.005      
H        H      0.017200000000     0.627650000000     0.297533333333     0.022      
H        H      0.228033333333     0.889700000000     0.177800000000     0.071      
H        H      0.183866666667     0.622350000000     0.202466666667     0.024      
H        H      0.061366666667     0.860300000000     0.322200000000     0.069      
H        H      0.271966666667     0.639700000000     0.011133333333     0.069      
H        H      0.271000000000     0.586500000000     0.044200000000     0.026      
H        H      0.015266666667     0.817100000000     0.332200000000     0.085      
H        H      0.021200000000     0.732600000000     0.173733333333     0.005      
H        H      0.104333333333     0.663500000000     0.122466666667     0.024      
H        H      0.318066666667     0.682900000000     0.001133333333     0.085      
H        H      0.151400000000     0.567100000000     0.165533333333     0.081      
H        H      0.145466666667     0.982600000000     0.007066666667     0.006      
H        H      0.057966666667     0.940100000000     0.173933333333    -0.007      
H        H      0.229000000000     0.836500000000     0.210866666667     0.024      
H        H      0.187866666667     0.517400000000     0.326266666667     0.006      
H        H      0.108700000000     0.690100000000     0.007266666667    -0.008      
C        C      0.156533333333     0.933450000000     0.169166666667    -0.097      
C        C      0.195733333333     0.599150000000     0.186266666667     0.074      
C        C      0.274500000000     0.763650000000     0.211133333333     0.429      
C        C      0.250000000000     0.561950000000     0.160333333333     0.102      
C        C      0.010133333333     0.683450000000     0.002500000000    -0.106      
C        C      0.025933333333     0.717050000000     0.026566666667     0.012      
C        C      0.250000000000     0.811950000000     0.327000000000     0.103      
C        C      0.228366666667     0.547150000000     0.023300000000    -0.158      
C        C      0.254900000000     0.614600000000     0.007833333333    -0.068      
C        C      0.204666666667     0.542850000000     0.330433333333     0.106      
C        C      0.140733333333     0.967050000000     0.193233333333     0.01       
C        C      0.245100000000     0.864600000000     0.174500000000    -0.074      
C        C      0.246100000000     0.833050000000     0.194333333333     0.058      
C        C      0.107833333333     0.986350000000     0.288866666667     0.43       
C        C      0.058833333333     0.736350000000     0.122200000000     0.429      
C        C      0.233666666667     0.597450000000     0.184400000000    -0.159      
C        C      0.083333333333     0.688050000000     0.006333333333     0.103      
C        C      0.077833333333     0.865900000000     0.125233333333     0.438      
C        C      0.104966666667     0.952850000000     0.310033333333    -0.158      
C        C      0.079433333333     0.916950000000     0.305666666667     0.054      
C        C      0.137600000000     0.900850000000     0.147066666667     0.074      
C        C      0.171100000000     0.995500000000     0.114366666667     0.295      
C        C      0.088833333333     0.615900000000     0.291900000000     0.439      
C        C      0.255500000000     0.634100000000     0.208100000000     0.438      
C        C      0.226533333333     0.639800000000     0.294366666667     0.354      
C        C      0.087233333333     0.666950000000     0.139000000000     0.058      
C        C      0.229966666667     0.607450000000     0.316600000000    -0.032      
C        C      0.067000000000     0.652550000000     0.315600000000    -0.161      
C        C      0.192600000000     0.532950000000     0.140100000000     0.01       
C        C      0.103366666667     0.892550000000     0.016733333333    -0.032      
C        C      0.328900000000     0.745500000000     0.281033333333     0.294      
C        C      0.271633333333     0.797150000000     0.189966666667    -0.163      
C        C      0.059866666667     0.610200000000     0.205633333333     0.353      
C        C      0.244500000000     0.884100000000     0.041433333333     0.439      
C        C      0.270033333333     0.857450000000     0.149933333333    -0.028      
C        C      0.266333333333     0.847450000000     0.017733333333    -0.161      
C        C      0.304266666667     0.849150000000     0.019600000000     0.08       
C        C      0.099666666667     0.902550000000     0.148933333333    -0.159      
C        C      0.295333333333     0.792850000000     0.163766666667     0.111      
C        C      0.029066666667     0.650850000000     0.313733333333     0.08       
C        C      0.323200000000     0.816550000000     0.330833333333    -0.106      
C        C      0.078433333333     0.885400000000     0.325500000000    -0.068      
C        C      0.273466666667     0.889800000000     0.127700000000     0.353      
C        C      0.162233333333     0.504500000000     0.218966666667     0.295      
C        C      0.004433333333     0.754500000000     0.052300000000     0.294      
C        C      0.038000000000     0.707150000000     0.169566666667     0.111      
C        C      0.176800000000     0.566550000000     0.164166666667    -0.097      
C        C      0.061700000000     0.702850000000     0.143366666667    -0.163      
C        C      0.106800000000     0.860200000000     0.038966666667     0.354      
C        C      0.253900000000     0.583050000000     0.027666666667     0.054      
C        C      0.128666666667     0.957150000000     0.002900000000     0.106      
C        C      0.063300000000     0.642550000000     0.183400000000    -0.028      
C        C      0.088233333333     0.635400000000     0.158833333333    -0.074      
C        C      0.307400000000     0.782950000000     0.306766666667     0.012      
C        C      0.083333333333     0.938050000000     0.173000000000     0.102      
C        C      0.225500000000     0.513650000000     0.044466666667     0.43       
N        N      0.229433333333     0.529350000000     0.137633333333    -0.225      
N        N      0.062766666667     0.720650000000     0.029033333333    -0.225      
N        N      0.295600000000     0.821550000000     0.144933333333    -0.237      
N        N      0.128933333333     0.928450000000     0.021733333333    -0.236      
N        N      0.037733333333     0.678450000000     0.188400000000    -0.237      
N        N      0.204400000000     0.571550000000     0.311600000000    -0.236      
N        N      0.103900000000     0.970650000000     0.195700000000    -0.225      
N        N      0.270566666667     0.779350000000     0.304300000000    -0.225      
O        O      0.084533333333     0.828250000000     0.038766666667    -0.438      
O        O      0.200833333333     0.981900000000     0.035400000000    -0.431      
O        O      0.032100000000     0.618450000000     0.224066666667    -0.419      
O        O      0.088966666667     0.982550000000     0.264766666667    -0.45       
O        O      0.092566666667     0.832350000000     0.104600000000    -0.493      
O        O      0.074100000000     0.582350000000     0.271266666667    -0.494      
O        O      0.299166666667     0.731900000000     0.202066666667    -0.43       
O        O      0.248800000000     0.671750000000     0.294566666667    -0.438      
O        O      0.244366666667     0.517450000000     0.068566666667    -0.45       
O        O      0.138266666667     0.501000000000     0.107666666667    -0.28       
O        O      0.134566666667     0.868450000000     0.057400000000    -0.42       
O        O      0.132500000000     0.518100000000     0.297933333333    -0.431      
O        O      0.023500000000     0.790850000000     0.066466666667    -0.527      
O        O      0.255633333333     0.767450000000     0.235233333333    -0.45       
O        O      0.043133333333     0.872800000000     0.127200000000    -0.495      
O        O      0.195066666667     0.999000000000     0.225666666667    -0.28       
O        O      0.301233333333     0.881550000000     0.109266666667    -0.419      
O        O      0.143166666667     0.540850000000     0.233133333333    -0.527      
O        O      0.304933333333     0.749000000000     0.059000000000    -0.279      
O        O      0.240766666667     0.667650000000     0.228733333333    -0.493      
O        O      0.259233333333     0.917650000000     0.062066666667    -0.494      
O        O      0.309833333333     0.709150000000     0.266866666667    -0.527      
O        O      0.209800000000     0.877200000000     0.039466666667    -0.495      
O        O      0.028400000000     0.751000000000     0.274333333333    -0.279      
O        O      0.123533333333     0.622800000000     0.293866666667    -0.495      
O        O      0.034166666667     0.768100000000     0.131266666667    -0.43       
O        O      0.190166666667     0.959150000000     0.100200000000    -0.527      
O        O      0.198766666667     0.631550000000     0.275933333333    -0.42       
O        O      0.251200000000     0.921750000000     0.127900000000    -0.437      
O        O      0.290200000000     0.627200000000     0.206133333333    -0.495      
O        O      0.082133333333     0.578250000000     0.205433333333    -0.437      
O        O      0.077700000000     0.732550000000     0.098100000000    -0.45       
Zn       Zn     0.171833333333     0.922945000000     0.385970000000     1.222      
Zn       Zn     0.005166666667     0.827055000000     0.447363333333     1.222      
Zn       Zn     0.252700000000     0.719005000000     0.599696666667     1.225      
Zn       Zn     0.247300000000     0.969005000000     0.433030000000     1.225      
Zn       Zn     0.086033333333     0.530995000000     0.566970000000     1.225      
Zn       Zn     0.080633333333     0.780995000000     0.400303333333     1.225      
Zn       Zn     0.328166666667     0.672945000000     0.552636666667     1.222      
Zn       Zn     0.161500000000     0.577055000000     0.614030000000     1.222      
H        H      0.316133333333     0.872350000000     0.369133333333     0.022      
H        H      0.181933333333     0.932900000000     0.501133333333     0.081      
H        H      0.224633333333     0.809900000000     0.659400000000    -0.008      
H        H      0.275366666667     0.559900000000     0.492733333333    -0.007      
H        H      0.062333333333     0.913500000000     0.622466666667     0.026      
H        H      0.149466666667     0.877650000000     0.464200000000     0.024      
H        H      0.105300000000     0.610300000000     0.488866666667     0.071      
H        H      0.312133333333     0.767400000000     0.492933333333     0.005      
H        H      0.017200000000     0.627650000000     0.630866666667     0.022      
H        H      0.228033333333     0.889700000000     0.511133333333     0.071      
H        H      0.183866666667     0.622350000000     0.535800000000     0.024      
H        H      0.061366666667     0.860300000000     0.655533333333     0.069      
H        H      0.271966666667     0.639700000000     0.344466666667     0.069      
H        H      0.271000000000     0.586500000000     0.377533333333     0.026      
H        H      0.015266666667     0.817100000000     0.665533333333     0.085      
H        H      0.021200000000     0.732600000000     0.507066666667     0.005      
H        H      0.104333333333     0.663500000000     0.455800000000     0.024      
H        H      0.318066666667     0.682900000000     0.334466666667     0.085      
H        H      0.151400000000     0.567100000000     0.498866666667     0.081      
H        H      0.145466666667     0.982600000000     0.340400000000     0.006      
H        H      0.057966666667     0.940100000000     0.507266666667    -0.007      
H        H      0.229000000000     0.836500000000     0.544200000000     0.024      
H        H      0.187866666667     0.517400000000     0.659600000000     0.006      
H        H      0.108700000000     0.690100000000     0.340600000000    -0.008      
C        C      0.156533333333     0.933450000000     0.502500000000    -0.097      
C        C      0.195733333333     0.599150000000     0.519600000000     0.074      
C        C      0.274500000000     0.763650000000     0.544466666667     0.429      
C        C      0.250000000000     0.561950000000     0.493666666667     0.102      
C        C      0.010133333333     0.683450000000     0.335833333333    -0.106      
C        C      0.025933333333     0.717050000000     0.359900000000     0.012      
C        C      0.250000000000     0.811950000000     0.660333333333     0.103      
C        C      0.228366666667     0.547150000000     0.356633333333    -0.158      
C        C      0.254900000000     0.614600000000     0.341166666667    -0.068      
C        C      0.204666666667     0.542850000000     0.663766666667     0.106      
C        C      0.140733333333     0.967050000000     0.526566666667     0.01       
C        C      0.245100000000     0.864600000000     0.507833333333    -0.074      
C        C      0.246100000000     0.833050000000     0.527666666667     0.058      
C        C      0.107833333333     0.986350000000     0.622200000000     0.43       
C        C      0.058833333333     0.736350000000     0.455533333333     0.429      
C        C      0.233666666667     0.597450000000     0.517733333333    -0.159      
C        C      0.083333333333     0.688050000000     0.339666666667     0.103      
C        C      0.077833333333     0.865900000000     0.458566666667     0.438      
C        C      0.104966666667     0.952850000000     0.643366666667    -0.158      
C        C      0.079433333333     0.916950000000     0.639000000000     0.054      
C        C      0.137600000000     0.900850000000     0.480400000000     0.074      
C        C      0.171100000000     0.995500000000     0.447700000000     0.295      
C        C      0.088833333333     0.615900000000     0.625233333333     0.439      
C        C      0.255500000000     0.634100000000     0.541433333333     0.438      
C        C      0.226533333333     0.639800000000     0.627700000000     0.354      
C        C      0.087233333333     0.666950000000     0.472333333333     0.058      
C        C      0.229966666667     0.607450000000     0.649933333333    -0.032      
C        C      0.067000000000     0.652550000000     0.648933333333    -0.161      
C        C      0.192600000000     0.532950000000     0.473433333333     0.01       
C        C      0.103366666667     0.892550000000     0.350066666667    -0.032      
C        C      0.328900000000     0.745500000000     0.614366666667     0.294      
C        C      0.271633333333     0.797150000000     0.523300000000    -0.163      
C        C      0.059866666667     0.610200000000     0.538966666667     0.353      
C        C      0.244500000000     0.884100000000     0.374766666667     0.439      
C        C      0.270033333333     0.857450000000     0.483266666667    -0.028      
C        C      0.266333333333     0.847450000000     0.351066666667    -0.161      
C        C      0.304266666667     0.849150000000     0.352933333333     0.08       
C        C      0.099666666667     0.902550000000     0.482266666667    -0.159      
C        C      0.295333333333     0.792850000000     0.497100000000     0.111      
C        C      0.029066666667     0.650850000000     0.647066666667     0.08       
C        C      0.323200000000     0.816550000000     0.664166666667    -0.106      
C        C      0.078433333333     0.885400000000     0.658833333333    -0.068      
C        C      0.273466666667     0.889800000000     0.461033333333     0.353      
C        C      0.162233333333     0.504500000000     0.552300000000     0.295      
C        C      0.004433333333     0.754500000000     0.385633333333     0.294      
C        C      0.038000000000     0.707150000000     0.502900000000     0.111      
C        C      0.176800000000     0.566550000000     0.497500000000    -0.097      
C        C      0.061700000000     0.702850000000     0.476700000000    -0.163      
C        C      0.106800000000     0.860200000000     0.372300000000     0.354      
C        C      0.253900000000     0.583050000000     0.361000000000     0.054      
C        C      0.128666666667     0.957150000000     0.336233333333     0.106      
C        C      0.063300000000     0.642550000000     0.516733333333    -0.028      
C        C      0.088233333333     0.635400000000     0.492166666667    -0.074      
C        C      0.307400000000     0.782950000000     0.640100000000     0.012      
C        C      0.083333333333     0.938050000000     0.506333333333     0.102      
C        C      0.225500000000     0.513650000000     0.377800000000     0.43       
N        N      0.229433333333     0.529350000000     0.470966666667    -0.225      
N        N      0.062766666667     0.720650000000     0.362366666667    -0.225      
N        N      0.295600000000     0.821550000000     0.478266666667    -0.237      
N        N      0.128933333333     0.928450000000     0.355066666667    -0.236      
N        N      0.037733333333     0.678450000000     0.521733333333    -0.237      
N        N      0.204400000000     0.571550000000     0.644933333333    -0.236      
N        N      0.103900000000     0.970650000000     0.529033333333    -0.225      
N        N      0.270566666667     0.779350000000     0.637633333333    -0.225      
O        O      0.084533333333     0.828250000000     0.372100000000    -0.438      
O        O      0.200833333333     0.981900000000     0.368733333333    -0.431      
O        O      0.032100000000     0.618450000000     0.557400000000    -0.419      
O        O      0.088966666667     0.982550000000     0.598100000000    -0.45       
O        O      0.092566666667     0.832350000000     0.437933333333    -0.493      
O        O      0.074100000000     0.582350000000     0.604600000000    -0.494      
O        O      0.299166666667     0.731900000000     0.535400000000    -0.43       
O        O      0.248800000000     0.671750000000     0.627900000000    -0.438      
O        O      0.244366666667     0.517450000000     0.401900000000    -0.45       
O        O      0.138266666667     0.501000000000     0.441000000000    -0.28       
O        O      0.134566666667     0.868450000000     0.390733333333    -0.42       
O        O      0.132500000000     0.518100000000     0.631266666667    -0.431      
O        O      0.023500000000     0.790850000000     0.399800000000    -0.527      
O        O      0.255633333333     0.767450000000     0.568566666667    -0.45       
O        O      0.043133333333     0.872800000000     0.460533333333    -0.495      
O        O      0.195066666667     0.999000000000     0.559000000000    -0.28       
O        O      0.301233333333     0.881550000000     0.442600000000    -0.419      
O        O      0.143166666667     0.540850000000     0.566466666667    -0.527      
O        O      0.304933333333     0.749000000000     0.392333333333    -0.279      
O        O      0.240766666667     0.667650000000     0.562066666667    -0.493      
O        O      0.259233333333     0.917650000000     0.395400000000    -0.494      
O        O      0.309833333333     0.709150000000     0.600200000000    -0.527      
O        O      0.209800000000     0.877200000000     0.372800000000    -0.495      
O        O      0.028400000000     0.751000000000     0.607666666667    -0.279      
O        O      0.123533333333     0.622800000000     0.627200000000    -0.495      
O        O      0.034166666667     0.768100000000     0.464600000000    -0.43       
O        O      0.190166666667     0.959150000000     0.433533333333    -0.527      
O        O      0.198766666667     0.631550000000     0.609266666667    -0.42       
O        O      0.251200000000     0.921750000000     0.461233333333    -0.437      
O        O      0.290200000000     0.627200000000     0.539466666667    -0.495      
O        O      0.082133333333     0.578250000000     0.538766666667    -0.437      
O        O      0.077700000000     0.732550000000     0.431433333333    -0.45       
Zn       Zn     0.171833333333     0.922945000000     0.719303333333     1.222      
Zn       Zn     0.005166666667     0.827055000000     0.780696666667     1.222      
Zn       Zn     0.252700000000     0.719005000000     0.933030000000     1.225      
Zn       Zn     0.247300000000     0.969005000000     0.766363333333     1.225      
Zn       Zn     0.086033333333     0.530995000000     0.900303333333     1.225      
Zn       Zn     0.080633333333     0.780995000000     0.733636666667     1.225      
Zn       Zn     0.328166666667     0.672945000000     0.885970000000     1.222      
Zn       Zn     0.161500000000     0.577055000000     0.947363333333     1.222      
H        H      0.316133333333     0.872350000000     0.702466666667     0.022      
H        H      0.181933333333     0.932900000000     0.834466666667     0.081      
H        H      0.224633333333     0.809900000000     0.992733333333    -0.008      
H        H      0.275366666667     0.559900000000     0.826066666667    -0.007      
H        H      0.062333333333     0.913500000000     0.955800000000     0.026      
H        H      0.149466666667     0.877650000000     0.797533333333     0.024      
H        H      0.105300000000     0.610300000000     0.822200000000     0.071      
H        H      0.312133333333     0.767400000000     0.826266666667     0.005      
H        H      0.017200000000     0.627650000000     0.964200000000     0.022      
H        H      0.228033333333     0.889700000000     0.844466666667     0.071      
H        H      0.183866666667     0.622350000000     0.869133333333     0.024      
H        H      0.061366666667     0.860300000000     0.988866666667     0.069      
H        H      0.271966666667     0.639700000000     0.677800000000     0.069      
H        H      0.271000000000     0.586500000000     0.710866666667     0.026      
H        H      0.015266666667     0.817100000000     0.998866666667     0.085      
H        H      0.021200000000     0.732600000000     0.840400000000     0.005      
H        H      0.104333333333     0.663500000000     0.789133333333     0.024      
H        H      0.318066666667     0.682900000000     0.667800000000     0.085      
H        H      0.151400000000     0.567100000000     0.832200000000     0.081      
H        H      0.145466666667     0.982600000000     0.673733333333     0.006      
H        H      0.057966666667     0.940100000000     0.840600000000    -0.007      
H        H      0.229000000000     0.836500000000     0.877533333333     0.024      
H        H      0.187866666667     0.517400000000     0.992933333333     0.006      
H        H      0.108700000000     0.690100000000     0.673933333333    -0.008      
C        C      0.156533333333     0.933450000000     0.835833333333    -0.097      
C        C      0.195733333333     0.599150000000     0.852933333333     0.074      
C        C      0.274500000000     0.763650000000     0.877800000000     0.429      
C        C      0.250000000000     0.561950000000     0.827000000000     0.102      
C        C      0.010133333333     0.683450000000     0.669166666667    -0.106      
C        C      0.025933333333     0.717050000000     0.693233333333     0.012      
C        C      0.250000000000     0.811950000000     0.993666666667     0.103      
C        C      0.228366666667     0.547150000000     0.689966666667    -0.158      
C        C      0.254900000000     0.614600000000     0.674500000000    -0.068      
C        C      0.204666666667     0.542850000000     0.997100000000     0.106      
C        C      0.140733333333     0.967050000000     0.859900000000     0.01       
C        C      0.245100000000     0.864600000000     0.841166666667    -0.074      
C        C      0.246100000000     0.833050000000     0.861000000000     0.058      
C        C      0.107833333333     0.986350000000     0.955533333333     0.43       
C        C      0.058833333333     0.736350000000     0.788866666667     0.429      
C        C      0.233666666667     0.597450000000     0.851066666667    -0.159      
C        C      0.083333333333     0.688050000000     0.673000000000     0.103      
C        C      0.077833333333     0.865900000000     0.791900000000     0.438      
C        C      0.104966666667     0.952850000000     0.976700000000    -0.158      
C        C      0.079433333333     0.916950000000     0.972333333333     0.054      
C        C      0.137600000000     0.900850000000     0.813733333333     0.074      
C        C      0.171100000000     0.995500000000     0.781033333333     0.295      
C        C      0.088833333333     0.615900000000     0.958566666667     0.439      
C        C      0.255500000000     0.634100000000     0.874766666667     0.438      
C        C      0.226533333333     0.639800000000     0.961033333333     0.354      
C        C      0.087233333333     0.666950000000     0.805666666667     0.058      
C        C      0.229966666667     0.607450000000     0.983266666667    -0.032      
C        C      0.067000000000     0.652550000000     0.982266666667    -0.161      
C        C      0.192600000000     0.532950000000     0.806766666667     0.01       
C        C      0.103366666667     0.892550000000     0.683400000000    -0.032      
C        C      0.328900000000     0.745500000000     0.947700000000     0.294      
C        C      0.271633333333     0.797150000000     0.856633333333    -0.163      
C        C      0.059866666667     0.610200000000     0.872300000000     0.353      
C        C      0.244500000000     0.884100000000     0.708100000000     0.439      
C        C      0.270033333333     0.857450000000     0.816600000000    -0.028      
C        C      0.266333333333     0.847450000000     0.684400000000    -0.161      
C        C      0.304266666667     0.849150000000     0.686266666667     0.08       
C        C      0.099666666667     0.902550000000     0.815600000000    -0.159      
C        C      0.295333333333     0.792850000000     0.830433333333     0.111      
C        C      0.029066666667     0.650850000000     0.980400000000     0.08       
C        C      0.323200000000     0.816550000000     0.997500000000    -0.106      
C        C      0.078433333333     0.885400000000     0.992166666667    -0.068      
C        C      0.273466666667     0.889800000000     0.794366666667     0.353      
C        C      0.162233333333     0.504500000000     0.885633333333     0.295      
C        C      0.004433333333     0.754500000000     0.718966666667     0.294      
C        C      0.038000000000     0.707150000000     0.836233333333     0.111      
C        C      0.176800000000     0.566550000000     0.830833333333    -0.097      
C        C      0.061700000000     0.702850000000     0.810033333333    -0.163      
C        C      0.106800000000     0.860200000000     0.705633333333     0.354      
C        C      0.253900000000     0.583050000000     0.694333333333     0.054      
C        C      0.128666666667     0.957150000000     0.669566666667     0.106      
C        C      0.063300000000     0.642550000000     0.850066666667    -0.028      
C        C      0.088233333333     0.635400000000     0.825500000000    -0.074      
C        C      0.307400000000     0.782950000000     0.973433333333     0.012      
C        C      0.083333333333     0.938050000000     0.839666666667     0.102      
C        C      0.225500000000     0.513650000000     0.711133333333     0.43       
N        N      0.229433333333     0.529350000000     0.804300000000    -0.225      
N        N      0.062766666667     0.720650000000     0.695700000000    -0.225      
N        N      0.295600000000     0.821550000000     0.811600000000    -0.237      
N        N      0.128933333333     0.928450000000     0.688400000000    -0.236      
N        N      0.037733333333     0.678450000000     0.855066666667    -0.237      
N        N      0.204400000000     0.571550000000     0.978266666667    -0.236      
N        N      0.103900000000     0.970650000000     0.862366666667    -0.225      
N        N      0.270566666667     0.779350000000     0.970966666667    -0.225      
O        O      0.084533333333     0.828250000000     0.705433333333    -0.438      
O        O      0.200833333333     0.981900000000     0.702066666667    -0.431      
O        O      0.032100000000     0.618450000000     0.890733333333    -0.419      
O        O      0.088966666667     0.982550000000     0.931433333333    -0.45       
O        O      0.092566666667     0.832350000000     0.771266666667    -0.493      
O        O      0.074100000000     0.582350000000     0.937933333333    -0.494      
O        O      0.299166666667     0.731900000000     0.868733333333    -0.43       
O        O      0.248800000000     0.671750000000     0.961233333333    -0.438      
O        O      0.244366666667     0.517450000000     0.735233333333    -0.45       
O        O      0.138266666667     0.501000000000     0.774333333333    -0.28       
O        O      0.134566666667     0.868450000000     0.724066666667    -0.42       
O        O      0.132500000000     0.518100000000     0.964600000000    -0.431      
O        O      0.023500000000     0.790850000000     0.733133333333    -0.527      
O        O      0.255633333333     0.767450000000     0.901900000000    -0.45       
O        O      0.043133333333     0.872800000000     0.793866666667    -0.495      
O        O      0.195066666667     0.999000000000     0.892333333333    -0.28       
O        O      0.301233333333     0.881550000000     0.775933333333    -0.419      
O        O      0.143166666667     0.540850000000     0.899800000000    -0.527      
O        O      0.304933333333     0.749000000000     0.725666666667    -0.279      
O        O      0.240766666667     0.667650000000     0.895400000000    -0.493      
O        O      0.259233333333     0.917650000000     0.728733333333    -0.494      
O        O      0.309833333333     0.709150000000     0.933533333333    -0.527      
O        O      0.209800000000     0.877200000000     0.706133333333    -0.495      
O        O      0.028400000000     0.751000000000     0.941000000000    -0.279      
O        O      0.123533333333     0.622800000000     0.960533333333    -0.495      
O        O      0.034166666667     0.768100000000     0.797933333333    -0.43       
O        O      0.190166666667     0.959150000000     0.766866666667    -0.527      
O        O      0.198766666667     0.631550000000     0.942600000000    -0.42       
O        O      0.251200000000     0.921750000000     0.794566666667    -0.437      
O        O      0.290200000000     0.627200000000     0.872800000000    -0.495      
O        O      0.082133333333     0.578250000000     0.872100000000    -0.437      
O        O      0.077700000000     0.732550000000     0.764766666667    -0.45       
Zn       Zn     0.505166666667     0.422945000000     0.052636666667     1.222      
Zn       Zn     0.338500000000     0.327055000000     0.114030000000     1.222      
Zn       Zn     0.586033333333     0.219005000000     0.266363333333     1.225      
Zn       Zn     0.580633333333     0.469005000000     0.099696666667     1.225      
Zn       Zn     0.419366666667     0.030995000000     0.233636666667     1.225      
Zn       Zn     0.413966666667     0.280995000000     0.066970000000     1.225      
Zn       Zn     0.661500000000     0.172945000000     0.219303333333     1.222      
Zn       Zn     0.494833333333     0.077055000000     0.280696666667     1.222      
H        H      0.649466666667     0.372350000000     0.035800000000     0.022      
H        H      0.515266666667     0.432900000000     0.167800000000     0.081      
H        H      0.557966666667     0.309900000000     0.326066666667    -0.008      
H        H      0.608700000000     0.059900000000     0.159400000000    -0.007      
H        H      0.395666666667     0.413500000000     0.289133333333     0.026      
H        H      0.482800000000     0.377650000000     0.130866666667     0.024      
H        H      0.438633333333     0.110300000000     0.155533333333     0.071      
H        H      0.645466666667     0.267400000000     0.159600000000     0.005      
H        H      0.350533333333     0.127650000000     0.297533333333     0.022      
H        H      0.561366666667     0.389700000000     0.177800000000     0.071      
H        H      0.517200000000     0.122350000000     0.202466666667     0.024      
H        H      0.394700000000     0.360300000000     0.322200000000     0.069      
H        H      0.605300000000     0.139700000000     0.011133333333     0.069      
H        H      0.604333333333     0.086500000000     0.044200000000     0.026      
H        H      0.348600000000     0.317100000000     0.332200000000     0.085      
H        H      0.354533333333     0.232600000000     0.173733333333     0.005      
H        H      0.437666666667     0.163500000000     0.122466666667     0.024      
H        H      0.651400000000     0.182900000000     0.001133333333     0.085      
H        H      0.484733333333     0.067100000000     0.165533333333     0.081      
H        H      0.478800000000     0.482600000000     0.007066666667     0.006      
H        H      0.391300000000     0.440100000000     0.173933333333    -0.007      
H        H      0.562333333333     0.336500000000     0.210866666667     0.024      
H        H      0.521200000000     0.017400000000     0.326266666667     0.006      
H        H      0.442033333333     0.190100000000     0.007266666667    -0.008      
C        C      0.489866666667     0.433450000000     0.169166666667    -0.097      
C        C      0.529066666667     0.099150000000     0.186266666667     0.074      
C        C      0.607833333333     0.263650000000     0.211133333333     0.429      
C        C      0.583333333333     0.061950000000     0.160333333333     0.102      
C        C      0.343466666667     0.183450000000     0.002500000000    -0.106      
C        C      0.359266666667     0.217050000000     0.026566666667     0.012      
C        C      0.583333333333     0.311950000000     0.327000000000     0.103      
C        C      0.561700000000     0.047150000000     0.023300000000    -0.158      
C        C      0.588233333333     0.114600000000     0.007833333333    -0.068      
C        C      0.538000000000     0.042850000000     0.330433333333     0.106      
C        C      0.474066666667     0.467050000000     0.193233333333     0.01       
C        C      0.578433333333     0.364600000000     0.174500000000    -0.074      
C        C      0.579433333333     0.333050000000     0.194333333333     0.058      
C        C      0.441166666667     0.486350000000     0.288866666667     0.43       
C        C      0.392166666667     0.236350000000     0.122200000000     0.429      
C        C      0.567000000000     0.097450000000     0.184400000000    -0.159      
C        C      0.416666666667     0.188050000000     0.006333333333     0.103      
C        C      0.411166666667     0.365900000000     0.125233333333     0.438      
C        C      0.438300000000     0.452850000000     0.310033333333    -0.158      
C        C      0.412766666667     0.416950000000     0.305666666667     0.054      
C        C      0.470933333333     0.400850000000     0.147066666667     0.074      
C        C      0.504433333333     0.495500000000     0.114366666667     0.295      
C        C      0.422166666667     0.115900000000     0.291900000000     0.439      
C        C      0.588833333333     0.134100000000     0.208100000000     0.438      
C        C      0.559866666667     0.139800000000     0.294366666667     0.354      
C        C      0.420566666667     0.166950000000     0.139000000000     0.058      
C        C      0.563300000000     0.107450000000     0.316600000000    -0.032      
C        C      0.400333333333     0.152550000000     0.315600000000    -0.161      
C        C      0.525933333333     0.032950000000     0.140100000000     0.01       
C        C      0.436700000000     0.392550000000     0.016733333333    -0.032      
C        C      0.662233333333     0.245500000000     0.281033333333     0.294      
C        C      0.604966666667     0.297150000000     0.189966666667    -0.163      
C        C      0.393200000000     0.110200000000     0.205633333333     0.353      
C        C      0.577833333333     0.384100000000     0.041433333333     0.439      
C        C      0.603366666667     0.357450000000     0.149933333333    -0.028      
C        C      0.599666666667     0.347450000000     0.017733333333    -0.161      
C        C      0.637600000000     0.349150000000     0.019600000000     0.08       
C        C      0.433000000000     0.402550000000     0.148933333333    -0.159      
C        C      0.628666666667     0.292850000000     0.163766666667     0.111      
C        C      0.362400000000     0.150850000000     0.313733333333     0.08       
C        C      0.656533333333     0.316550000000     0.330833333333    -0.106      
C        C      0.411766666667     0.385400000000     0.325500000000    -0.068      
C        C      0.606800000000     0.389800000000     0.127700000000     0.353      
C        C      0.495566666667     0.004500000000     0.218966666667     0.295      
C        C      0.337766666667     0.254500000000     0.052300000000     0.294      
C        C      0.371333333333     0.207150000000     0.169566666667     0.111      
C        C      0.510133333333     0.066550000000     0.164166666667    -0.097      
C        C      0.395033333333     0.202850000000     0.143366666667    -0.163      
C        C      0.440133333333     0.360200000000     0.038966666667     0.354      
C        C      0.587233333333     0.083050000000     0.027666666667     0.054      
C        C      0.462000000000     0.457150000000     0.002900000000     0.106      
C        C      0.396633333333     0.142550000000     0.183400000000    -0.028      
C        C      0.421566666667     0.135400000000     0.158833333333    -0.074      
C        C      0.640733333333     0.282950000000     0.306766666667     0.012      
C        C      0.416666666667     0.438050000000     0.173000000000     0.102      
C        C      0.558833333333     0.013650000000     0.044466666667     0.43       
N        N      0.562766666667     0.029350000000     0.137633333333    -0.225      
N        N      0.396100000000     0.220650000000     0.029033333333    -0.225      
N        N      0.628933333333     0.321550000000     0.144933333333    -0.237      
N        N      0.462266666667     0.428450000000     0.021733333333    -0.236      
N        N      0.371066666667     0.178450000000     0.188400000000    -0.237      
N        N      0.537733333333     0.071550000000     0.311600000000    -0.236      
N        N      0.437233333333     0.470650000000     0.195700000000    -0.225      
N        N      0.603900000000     0.279350000000     0.304300000000    -0.225      
O        O      0.417866666667     0.328250000000     0.038766666667    -0.438      
O        O      0.534166666667     0.481900000000     0.035400000000    -0.431      
O        O      0.365433333333     0.118450000000     0.224066666667    -0.419      
O        O      0.422300000000     0.482550000000     0.264766666667    -0.45       
O        O      0.425900000000     0.332350000000     0.104600000000    -0.493      
O        O      0.407433333333     0.082350000000     0.271266666667    -0.494      
O        O      0.632500000000     0.231900000000     0.202066666667    -0.43       
O        O      0.582133333333     0.171750000000     0.294566666667    -0.438      
O        O      0.577700000000     0.017450000000     0.068566666667    -0.45       
O        O      0.471600000000     0.001000000000     0.107666666667    -0.28       
O        O      0.467900000000     0.368450000000     0.057400000000    -0.42       
O        O      0.465833333333     0.018100000000     0.297933333333    -0.431      
O        O      0.356833333333     0.290850000000     0.066466666667    -0.527      
O        O      0.588966666667     0.267450000000     0.235233333333    -0.45       
O        O      0.376466666667     0.372800000000     0.127200000000    -0.495      
O        O      0.528400000000     0.499000000000     0.225666666667    -0.28       
O        O      0.634566666667     0.381550000000     0.109266666667    -0.419      
O        O      0.476500000000     0.040850000000     0.233133333333    -0.527      
O        O      0.638266666667     0.249000000000     0.059000000000    -0.279      
O        O      0.574100000000     0.167650000000     0.228733333333    -0.493      
O        O      0.592566666667     0.417650000000     0.062066666667    -0.494      
O        O      0.643166666667     0.209150000000     0.266866666667    -0.527      
O        O      0.543133333333     0.377200000000     0.039466666667    -0.495      
O        O      0.361733333333     0.251000000000     0.274333333333    -0.279      
O        O      0.456866666667     0.122800000000     0.293866666667    -0.495      
O        O      0.367500000000     0.268100000000     0.131266666667    -0.43       
O        O      0.523500000000     0.459150000000     0.100200000000    -0.527      
O        O      0.532100000000     0.131550000000     0.275933333333    -0.42       
O        O      0.584533333333     0.421750000000     0.127900000000    -0.437      
O        O      0.623533333333     0.127200000000     0.206133333333    -0.495      
O        O      0.415466666667     0.078250000000     0.205433333333    -0.437      
O        O      0.411033333333     0.232550000000     0.098100000000    -0.45       
Zn       Zn     0.505166666667     0.422945000000     0.385970000000     1.222      
Zn       Zn     0.338500000000     0.327055000000     0.447363333333     1.222      
Zn       Zn     0.586033333333     0.219005000000     0.599696666667     1.225      
Zn       Zn     0.580633333333     0.469005000000     0.433030000000     1.225      
Zn       Zn     0.419366666667     0.030995000000     0.566970000000     1.225      
Zn       Zn     0.413966666667     0.280995000000     0.400303333333     1.225      
Zn       Zn     0.661500000000     0.172945000000     0.552636666667     1.222      
Zn       Zn     0.494833333333     0.077055000000     0.614030000000     1.222      
H        H      0.649466666667     0.372350000000     0.369133333333     0.022      
H        H      0.515266666667     0.432900000000     0.501133333333     0.081      
H        H      0.557966666667     0.309900000000     0.659400000000    -0.008      
H        H      0.608700000000     0.059900000000     0.492733333333    -0.007      
H        H      0.395666666667     0.413500000000     0.622466666667     0.026      
H        H      0.482800000000     0.377650000000     0.464200000000     0.024      
H        H      0.438633333333     0.110300000000     0.488866666667     0.071      
H        H      0.645466666667     0.267400000000     0.492933333333     0.005      
H        H      0.350533333333     0.127650000000     0.630866666667     0.022      
H        H      0.561366666667     0.389700000000     0.511133333333     0.071      
H        H      0.517200000000     0.122350000000     0.535800000000     0.024      
H        H      0.394700000000     0.360300000000     0.655533333333     0.069      
H        H      0.605300000000     0.139700000000     0.344466666667     0.069      
H        H      0.604333333333     0.086500000000     0.377533333333     0.026      
H        H      0.348600000000     0.317100000000     0.665533333333     0.085      
H        H      0.354533333333     0.232600000000     0.507066666667     0.005      
H        H      0.437666666667     0.163500000000     0.455800000000     0.024      
H        H      0.651400000000     0.182900000000     0.334466666667     0.085      
H        H      0.484733333333     0.067100000000     0.498866666667     0.081      
H        H      0.478800000000     0.482600000000     0.340400000000     0.006      
H        H      0.391300000000     0.440100000000     0.507266666667    -0.007      
H        H      0.562333333333     0.336500000000     0.544200000000     0.024      
H        H      0.521200000000     0.017400000000     0.659600000000     0.006      
H        H      0.442033333333     0.190100000000     0.340600000000    -0.008      
C        C      0.489866666667     0.433450000000     0.502500000000    -0.097      
C        C      0.529066666667     0.099150000000     0.519600000000     0.074      
C        C      0.607833333333     0.263650000000     0.544466666667     0.429      
C        C      0.583333333333     0.061950000000     0.493666666667     0.102      
C        C      0.343466666667     0.183450000000     0.335833333333    -0.106      
C        C      0.359266666667     0.217050000000     0.359900000000     0.012      
C        C      0.583333333333     0.311950000000     0.660333333333     0.103      
C        C      0.561700000000     0.047150000000     0.356633333333    -0.158      
C        C      0.588233333333     0.114600000000     0.341166666667    -0.068      
C        C      0.538000000000     0.042850000000     0.663766666667     0.106      
C        C      0.474066666667     0.467050000000     0.526566666667     0.01       
C        C      0.578433333333     0.364600000000     0.507833333333    -0.074      
C        C      0.579433333333     0.333050000000     0.527666666667     0.058      
C        C      0.441166666667     0.486350000000     0.622200000000     0.43       
C        C      0.392166666667     0.236350000000     0.455533333333     0.429      
C        C      0.567000000000     0.097450000000     0.517733333333    -0.159      
C        C      0.416666666667     0.188050000000     0.339666666667     0.103      
C        C      0.411166666667     0.365900000000     0.458566666667     0.438      
C        C      0.438300000000     0.452850000000     0.643366666667    -0.158      
C        C      0.412766666667     0.416950000000     0.639000000000     0.054      
C        C      0.470933333333     0.400850000000     0.480400000000     0.074      
C        C      0.504433333333     0.495500000000     0.447700000000     0.295      
C        C      0.422166666667     0.115900000000     0.625233333333     0.439      
C        C      0.588833333333     0.134100000000     0.541433333333     0.438      
C        C      0.559866666667     0.139800000000     0.627700000000     0.354      
C        C      0.420566666667     0.166950000000     0.472333333333     0.058      
C        C      0.563300000000     0.107450000000     0.649933333333    -0.032      
C        C      0.400333333333     0.152550000000     0.648933333333    -0.161      
C        C      0.525933333333     0.032950000000     0.473433333333     0.01       
C        C      0.436700000000     0.392550000000     0.350066666667    -0.032      
C        C      0.662233333333     0.245500000000     0.614366666667     0.294      
C        C      0.604966666667     0.297150000000     0.523300000000    -0.163      
C        C      0.393200000000     0.110200000000     0.538966666667     0.353      
C        C      0.577833333333     0.384100000000     0.374766666667     0.439      
C        C      0.603366666667     0.357450000000     0.483266666667    -0.028      
C        C      0.599666666667     0.347450000000     0.351066666667    -0.161      
C        C      0.637600000000     0.349150000000     0.352933333333     0.08       
C        C      0.433000000000     0.402550000000     0.482266666667    -0.159      
C        C      0.628666666667     0.292850000000     0.497100000000     0.111      
C        C      0.362400000000     0.150850000000     0.647066666667     0.08       
C        C      0.656533333333     0.316550000000     0.664166666667    -0.106      
C        C      0.411766666667     0.385400000000     0.658833333333    -0.068      
C        C      0.606800000000     0.389800000000     0.461033333333     0.353      
C        C      0.495566666667     0.004500000000     0.552300000000     0.295      
C        C      0.337766666667     0.254500000000     0.385633333333     0.294      
C        C      0.371333333333     0.207150000000     0.502900000000     0.111      
C        C      0.510133333333     0.066550000000     0.497500000000    -0.097      
C        C      0.395033333333     0.202850000000     0.476700000000    -0.163      
C        C      0.440133333333     0.360200000000     0.372300000000     0.354      
C        C      0.587233333333     0.083050000000     0.361000000000     0.054      
C        C      0.462000000000     0.457150000000     0.336233333333     0.106      
C        C      0.396633333333     0.142550000000     0.516733333333    -0.028      
C        C      0.421566666667     0.135400000000     0.492166666667    -0.074      
C        C      0.640733333333     0.282950000000     0.640100000000     0.012      
C        C      0.416666666667     0.438050000000     0.506333333333     0.102      
C        C      0.558833333333     0.013650000000     0.377800000000     0.43       
N        N      0.562766666667     0.029350000000     0.470966666667    -0.225      
N        N      0.396100000000     0.220650000000     0.362366666667    -0.225      
N        N      0.628933333333     0.321550000000     0.478266666667    -0.237      
N        N      0.462266666667     0.428450000000     0.355066666667    -0.236      
N        N      0.371066666667     0.178450000000     0.521733333333    -0.237      
N        N      0.537733333333     0.071550000000     0.644933333333    -0.236      
N        N      0.437233333333     0.470650000000     0.529033333333    -0.225      
N        N      0.603900000000     0.279350000000     0.637633333333    -0.225      
O        O      0.417866666667     0.328250000000     0.372100000000    -0.438      
O        O      0.534166666667     0.481900000000     0.368733333333    -0.431      
O        O      0.365433333333     0.118450000000     0.557400000000    -0.419      
O        O      0.422300000000     0.482550000000     0.598100000000    -0.45       
O        O      0.425900000000     0.332350000000     0.437933333333    -0.493      
O        O      0.407433333333     0.082350000000     0.604600000000    -0.494      
O        O      0.632500000000     0.231900000000     0.535400000000    -0.43       
O        O      0.582133333333     0.171750000000     0.627900000000    -0.438      
O        O      0.577700000000     0.017450000000     0.401900000000    -0.45       
O        O      0.471600000000     0.001000000000     0.441000000000    -0.28       
O        O      0.467900000000     0.368450000000     0.390733333333    -0.42       
O        O      0.465833333333     0.018100000000     0.631266666667    -0.431      
O        O      0.356833333333     0.290850000000     0.399800000000    -0.527      
O        O      0.588966666667     0.267450000000     0.568566666667    -0.45       
O        O      0.376466666667     0.372800000000     0.460533333333    -0.495      
O        O      0.528400000000     0.499000000000     0.559000000000    -0.28       
O        O      0.634566666667     0.381550000000     0.442600000000    -0.419      
O        O      0.476500000000     0.040850000000     0.566466666667    -0.527      
O        O      0.638266666667     0.249000000000     0.392333333333    -0.279      
O        O      0.574100000000     0.167650000000     0.562066666667    -0.493      
O        O      0.592566666667     0.417650000000     0.395400000000    -0.494      
O        O      0.643166666667     0.209150000000     0.600200000000    -0.527      
O        O      0.543133333333     0.377200000000     0.372800000000    -0.495      
O        O      0.361733333333     0.251000000000     0.607666666667    -0.279      
O        O      0.456866666667     0.122800000000     0.627200000000    -0.495      
O        O      0.367500000000     0.268100000000     0.464600000000    -0.43       
O        O      0.523500000000     0.459150000000     0.433533333333    -0.527      
O        O      0.532100000000     0.131550000000     0.609266666667    -0.42       
O        O      0.584533333333     0.421750000000     0.461233333333    -0.437      
O        O      0.623533333333     0.127200000000     0.539466666667    -0.495      
O        O      0.415466666667     0.078250000000     0.538766666667    -0.437      
O        O      0.411033333333     0.232550000000     0.431433333333    -0.45       
Zn       Zn     0.505166666667     0.422945000000     0.719303333333     1.222      
Zn       Zn     0.338500000000     0.327055000000     0.780696666667     1.222      
Zn       Zn     0.586033333333     0.219005000000     0.933030000000     1.225      
Zn       Zn     0.580633333333     0.469005000000     0.766363333333     1.225      
Zn       Zn     0.419366666667     0.030995000000     0.900303333333     1.225      
Zn       Zn     0.413966666667     0.280995000000     0.733636666667     1.225      
Zn       Zn     0.661500000000     0.172945000000     0.885970000000     1.222      
Zn       Zn     0.494833333333     0.077055000000     0.947363333333     1.222      
H        H      0.649466666667     0.372350000000     0.702466666667     0.022      
H        H      0.515266666667     0.432900000000     0.834466666667     0.081      
H        H      0.557966666667     0.309900000000     0.992733333333    -0.008      
H        H      0.608700000000     0.059900000000     0.826066666667    -0.007      
H        H      0.395666666667     0.413500000000     0.955800000000     0.026      
H        H      0.482800000000     0.377650000000     0.797533333333     0.024      
H        H      0.438633333333     0.110300000000     0.822200000000     0.071      
H        H      0.645466666667     0.267400000000     0.826266666667     0.005      
H        H      0.350533333333     0.127650000000     0.964200000000     0.022      
H        H      0.561366666667     0.389700000000     0.844466666667     0.071      
H        H      0.517200000000     0.122350000000     0.869133333333     0.024      
H        H      0.394700000000     0.360300000000     0.988866666667     0.069      
H        H      0.605300000000     0.139700000000     0.677800000000     0.069      
H        H      0.604333333333     0.086500000000     0.710866666667     0.026      
H        H      0.348600000000     0.317100000000     0.998866666667     0.085      
H        H      0.354533333333     0.232600000000     0.840400000000     0.005      
H        H      0.437666666667     0.163500000000     0.789133333333     0.024      
H        H      0.651400000000     0.182900000000     0.667800000000     0.085      
H        H      0.484733333333     0.067100000000     0.832200000000     0.081      
H        H      0.478800000000     0.482600000000     0.673733333333     0.006      
H        H      0.391300000000     0.440100000000     0.840600000000    -0.007      
H        H      0.562333333333     0.336500000000     0.877533333333     0.024      
H        H      0.521200000000     0.017400000000     0.992933333333     0.006      
H        H      0.442033333333     0.190100000000     0.673933333333    -0.008      
C        C      0.489866666667     0.433450000000     0.835833333333    -0.097      
C        C      0.529066666667     0.099150000000     0.852933333333     0.074      
C        C      0.607833333333     0.263650000000     0.877800000000     0.429      
C        C      0.583333333333     0.061950000000     0.827000000000     0.102      
C        C      0.343466666667     0.183450000000     0.669166666667    -0.106      
C        C      0.359266666667     0.217050000000     0.693233333333     0.012      
C        C      0.583333333333     0.311950000000     0.993666666667     0.103      
C        C      0.561700000000     0.047150000000     0.689966666667    -0.158      
C        C      0.588233333333     0.114600000000     0.674500000000    -0.068      
C        C      0.538000000000     0.042850000000     0.997100000000     0.106      
C        C      0.474066666667     0.467050000000     0.859900000000     0.01       
C        C      0.578433333333     0.364600000000     0.841166666667    -0.074      
C        C      0.579433333333     0.333050000000     0.861000000000     0.058      
C        C      0.441166666667     0.486350000000     0.955533333333     0.43       
C        C      0.392166666667     0.236350000000     0.788866666667     0.429      
C        C      0.567000000000     0.097450000000     0.851066666667    -0.159      
C        C      0.416666666667     0.188050000000     0.673000000000     0.103      
C        C      0.411166666667     0.365900000000     0.791900000000     0.438      
C        C      0.438300000000     0.452850000000     0.976700000000    -0.158      
C        C      0.412766666667     0.416950000000     0.972333333333     0.054      
C        C      0.470933333333     0.400850000000     0.813733333333     0.074      
C        C      0.504433333333     0.495500000000     0.781033333333     0.295      
C        C      0.422166666667     0.115900000000     0.958566666667     0.439      
C        C      0.588833333333     0.134100000000     0.874766666667     0.438      
C        C      0.559866666667     0.139800000000     0.961033333333     0.354      
C        C      0.420566666667     0.166950000000     0.805666666667     0.058      
C        C      0.563300000000     0.107450000000     0.983266666667    -0.032      
C        C      0.400333333333     0.152550000000     0.982266666667    -0.161      
C        C      0.525933333333     0.032950000000     0.806766666667     0.01       
C        C      0.436700000000     0.392550000000     0.683400000000    -0.032      
C        C      0.662233333333     0.245500000000     0.947700000000     0.294      
C        C      0.604966666667     0.297150000000     0.856633333333    -0.163      
C        C      0.393200000000     0.110200000000     0.872300000000     0.353      
C        C      0.577833333333     0.384100000000     0.708100000000     0.439      
C        C      0.603366666667     0.357450000000     0.816600000000    -0.028      
C        C      0.599666666667     0.347450000000     0.684400000000    -0.161      
C        C      0.637600000000     0.349150000000     0.686266666667     0.08       
C        C      0.433000000000     0.402550000000     0.815600000000    -0.159      
C        C      0.628666666667     0.292850000000     0.830433333333     0.111      
C        C      0.362400000000     0.150850000000     0.980400000000     0.08       
C        C      0.656533333333     0.316550000000     0.997500000000    -0.106      
C        C      0.411766666667     0.385400000000     0.992166666667    -0.068      
C        C      0.606800000000     0.389800000000     0.794366666667     0.353      
C        C      0.495566666667     0.004500000000     0.885633333333     0.295      
C        C      0.337766666667     0.254500000000     0.718966666667     0.294      
C        C      0.371333333333     0.207150000000     0.836233333333     0.111      
C        C      0.510133333333     0.066550000000     0.830833333333    -0.097      
C        C      0.395033333333     0.202850000000     0.810033333333    -0.163      
C        C      0.440133333333     0.360200000000     0.705633333333     0.354      
C        C      0.587233333333     0.083050000000     0.694333333333     0.054      
C        C      0.462000000000     0.457150000000     0.669566666667     0.106      
C        C      0.396633333333     0.142550000000     0.850066666667    -0.028      
C        C      0.421566666667     0.135400000000     0.825500000000    -0.074      
C        C      0.640733333333     0.282950000000     0.973433333333     0.012      
C        C      0.416666666667     0.438050000000     0.839666666667     0.102      
C        C      0.558833333333     0.013650000000     0.711133333333     0.43       
N        N      0.562766666667     0.029350000000     0.804300000000    -0.225      
N        N      0.396100000000     0.220650000000     0.695700000000    -0.225      
N        N      0.628933333333     0.321550000000     0.811600000000    -0.237      
N        N      0.462266666667     0.428450000000     0.688400000000    -0.236      
N        N      0.371066666667     0.178450000000     0.855066666667    -0.237      
N        N      0.537733333333     0.071550000000     0.978266666667    -0.236      
N        N      0.437233333333     0.470650000000     0.862366666667    -0.225      
N        N      0.603900000000     0.279350000000     0.970966666667    -0.225      
O        O      0.417866666667     0.328250000000     0.705433333333    -0.438      
O        O      0.534166666667     0.481900000000     0.702066666667    -0.431      
O        O      0.365433333333     0.118450000000     0.890733333333    -0.419      
O        O      0.422300000000     0.482550000000     0.931433333333    -0.45       
O        O      0.425900000000     0.332350000000     0.771266666667    -0.493      
O        O      0.407433333333     0.082350000000     0.937933333333    -0.494      
O        O      0.632500000000     0.231900000000     0.868733333333    -0.43       
O        O      0.582133333333     0.171750000000     0.961233333333    -0.438      
O        O      0.577700000000     0.017450000000     0.735233333333    -0.45       
O        O      0.471600000000     0.001000000000     0.774333333333    -0.28       
O        O      0.467900000000     0.368450000000     0.724066666667    -0.42       
O        O      0.465833333333     0.018100000000     0.964600000000    -0.431      
O        O      0.356833333333     0.290850000000     0.733133333333    -0.527      
O        O      0.588966666667     0.267450000000     0.901900000000    -0.45       
O        O      0.376466666667     0.372800000000     0.793866666667    -0.495      
O        O      0.528400000000     0.499000000000     0.892333333333    -0.28       
O        O      0.634566666667     0.381550000000     0.775933333333    -0.419      
O        O      0.476500000000     0.040850000000     0.899800000000    -0.527      
O        O      0.638266666667     0.249000000000     0.725666666667    -0.279      
O        O      0.574100000000     0.167650000000     0.895400000000    -0.493      
O        O      0.592566666667     0.417650000000     0.728733333333    -0.494      
O        O      0.643166666667     0.209150000000     0.933533333333    -0.527      
O        O      0.543133333333     0.377200000000     0.706133333333    -0.495      
O        O      0.361733333333     0.251000000000     0.941000000000    -0.279      
O        O      0.456866666667     0.122800000000     0.960533333333    -0.495      
O        O      0.367500000000     0.268100000000     0.797933333333    -0.43       
O        O      0.523500000000     0.459150000000     0.766866666667    -0.527      
O        O      0.532100000000     0.131550000000     0.942600000000    -0.42       
O        O      0.584533333333     0.421750000000     0.794566666667    -0.437      
O        O      0.623533333333     0.127200000000     0.872800000000    -0.495      
O        O      0.415466666667     0.078250000000     0.872100000000    -0.437      
O        O      0.411033333333     0.232550000000     0.764766666667    -0.45       
Zn       Zn     0.505166666667     0.922945000000     0.052636666667     1.222      
Zn       Zn     0.338500000000     0.827055000000     0.114030000000     1.222      
Zn       Zn     0.586033333333     0.719005000000     0.266363333333     1.225      
Zn       Zn     0.580633333333     0.969005000000     0.099696666667     1.225      
Zn       Zn     0.419366666667     0.530995000000     0.233636666667     1.225      
Zn       Zn     0.413966666667     0.780995000000     0.066970000000     1.225      
Zn       Zn     0.661500000000     0.672945000000     0.219303333333     1.222      
Zn       Zn     0.494833333333     0.577055000000     0.280696666667     1.222      
H        H      0.649466666667     0.872350000000     0.035800000000     0.022      
H        H      0.515266666667     0.932900000000     0.167800000000     0.081      
H        H      0.557966666667     0.809900000000     0.326066666667    -0.008      
H        H      0.608700000000     0.559900000000     0.159400000000    -0.007      
H        H      0.395666666667     0.913500000000     0.289133333333     0.026      
H        H      0.482800000000     0.877650000000     0.130866666667     0.024      
H        H      0.438633333333     0.610300000000     0.155533333333     0.071      
H        H      0.645466666667     0.767400000000     0.159600000000     0.005      
H        H      0.350533333333     0.627650000000     0.297533333333     0.022      
H        H      0.561366666667     0.889700000000     0.177800000000     0.071      
H        H      0.517200000000     0.622350000000     0.202466666667     0.024      
H        H      0.394700000000     0.860300000000     0.322200000000     0.069      
H        H      0.605300000000     0.639700000000     0.011133333333     0.069      
H        H      0.604333333333     0.586500000000     0.044200000000     0.026      
H        H      0.348600000000     0.817100000000     0.332200000000     0.085      
H        H      0.354533333333     0.732600000000     0.173733333333     0.005      
H        H      0.437666666667     0.663500000000     0.122466666667     0.024      
H        H      0.651400000000     0.682900000000     0.001133333333     0.085      
H        H      0.484733333333     0.567100000000     0.165533333333     0.081      
H        H      0.478800000000     0.982600000000     0.007066666667     0.006      
H        H      0.391300000000     0.940100000000     0.173933333333    -0.007      
H        H      0.562333333333     0.836500000000     0.210866666667     0.024      
H        H      0.521200000000     0.517400000000     0.326266666667     0.006      
H        H      0.442033333333     0.690100000000     0.007266666667    -0.008      
C        C      0.489866666667     0.933450000000     0.169166666667    -0.097      
C        C      0.529066666667     0.599150000000     0.186266666667     0.074      
C        C      0.607833333333     0.763650000000     0.211133333333     0.429      
C        C      0.583333333333     0.561950000000     0.160333333333     0.102      
C        C      0.343466666667     0.683450000000     0.002500000000    -0.106      
C        C      0.359266666667     0.717050000000     0.026566666667     0.012      
C        C      0.583333333333     0.811950000000     0.327000000000     0.103      
C        C      0.561700000000     0.547150000000     0.023300000000    -0.158      
C        C      0.588233333333     0.614600000000     0.007833333333    -0.068      
C        C      0.538000000000     0.542850000000     0.330433333333     0.106      
C        C      0.474066666667     0.967050000000     0.193233333333     0.01       
C        C      0.578433333333     0.864600000000     0.174500000000    -0.074      
C        C      0.579433333333     0.833050000000     0.194333333333     0.058      
C        C      0.441166666667     0.986350000000     0.288866666667     0.43       
C        C      0.392166666667     0.736350000000     0.122200000000     0.429      
C        C      0.567000000000     0.597450000000     0.184400000000    -0.159      
C        C      0.416666666667     0.688050000000     0.006333333333     0.103      
C        C      0.411166666667     0.865900000000     0.125233333333     0.438      
C        C      0.438300000000     0.952850000000     0.310033333333    -0.158      
C        C      0.412766666667     0.916950000000     0.305666666667     0.054      
C        C      0.470933333333     0.900850000000     0.147066666667     0.074      
C        C      0.504433333333     0.995500000000     0.114366666667     0.295      
C        C      0.422166666667     0.615900000000     0.291900000000     0.439      
C        C      0.588833333333     0.634100000000     0.208100000000     0.438      
C        C      0.559866666667     0.639800000000     0.294366666667     0.354      
C        C      0.420566666667     0.666950000000     0.139000000000     0.058      
C        C      0.563300000000     0.607450000000     0.316600000000    -0.032      
C        C      0.400333333333     0.652550000000     0.315600000000    -0.161      
C        C      0.525933333333     0.532950000000     0.140100000000     0.01       
C        C      0.436700000000     0.892550000000     0.016733333333    -0.032      
C        C      0.662233333333     0.745500000000     0.281033333333     0.294      
C        C      0.604966666667     0.797150000000     0.189966666667    -0.163      
C        C      0.393200000000     0.610200000000     0.205633333333     0.353      
C        C      0.577833333333     0.884100000000     0.041433333333     0.439      
C        C      0.603366666667     0.857450000000     0.149933333333    -0.028      
C        C      0.599666666667     0.847450000000     0.017733333333    -0.161      
C        C      0.637600000000     0.849150000000     0.019600000000     0.08       
C        C      0.433000000000     0.902550000000     0.148933333333    -0.159      
C        C      0.628666666667     0.792850000000     0.163766666667     0.111      
C        C      0.362400000000     0.650850000000     0.313733333333     0.08       
C        C      0.656533333333     0.816550000000     0.330833333333    -0.106      
C        C      0.411766666667     0.885400000000     0.325500000000    -0.068      
C        C      0.606800000000     0.889800000000     0.127700000000     0.353      
C        C      0.495566666667     0.504500000000     0.218966666667     0.295      
C        C      0.337766666667     0.754500000000     0.052300000000     0.294      
C        C      0.371333333333     0.707150000000     0.169566666667     0.111      
C        C      0.510133333333     0.566550000000     0.164166666667    -0.097      
C        C      0.395033333333     0.702850000000     0.143366666667    -0.163      
C        C      0.440133333333     0.860200000000     0.038966666667     0.354      
C        C      0.587233333333     0.583050000000     0.027666666667     0.054      
C        C      0.462000000000     0.957150000000     0.002900000000     0.106      
C        C      0.396633333333     0.642550000000     0.183400000000    -0.028      
C        C      0.421566666667     0.635400000000     0.158833333333    -0.074      
C        C      0.640733333333     0.782950000000     0.306766666667     0.012      
C        C      0.416666666667     0.938050000000     0.173000000000     0.102      
C        C      0.558833333333     0.513650000000     0.044466666667     0.43       
N        N      0.562766666667     0.529350000000     0.137633333333    -0.225      
N        N      0.396100000000     0.720650000000     0.029033333333    -0.225      
N        N      0.628933333333     0.821550000000     0.144933333333    -0.237      
N        N      0.462266666667     0.928450000000     0.021733333333    -0.236      
N        N      0.371066666667     0.678450000000     0.188400000000    -0.237      
N        N      0.537733333333     0.571550000000     0.311600000000    -0.236      
N        N      0.437233333333     0.970650000000     0.195700000000    -0.225      
N        N      0.603900000000     0.779350000000     0.304300000000    -0.225      
O        O      0.417866666667     0.828250000000     0.038766666667    -0.438      
O        O      0.534166666667     0.981900000000     0.035400000000    -0.431      
O        O      0.365433333333     0.618450000000     0.224066666667    -0.419      
O        O      0.422300000000     0.982550000000     0.264766666667    -0.45       
O        O      0.425900000000     0.832350000000     0.104600000000    -0.493      
O        O      0.407433333333     0.582350000000     0.271266666667    -0.494      
O        O      0.632500000000     0.731900000000     0.202066666667    -0.43       
O        O      0.582133333333     0.671750000000     0.294566666667    -0.438      
O        O      0.577700000000     0.517450000000     0.068566666667    -0.45       
O        O      0.471600000000     0.501000000000     0.107666666667    -0.28       
O        O      0.467900000000     0.868450000000     0.057400000000    -0.42       
O        O      0.465833333333     0.518100000000     0.297933333333    -0.431      
O        O      0.356833333333     0.790850000000     0.066466666667    -0.527      
O        O      0.588966666667     0.767450000000     0.235233333333    -0.45       
O        O      0.376466666667     0.872800000000     0.127200000000    -0.495      
O        O      0.528400000000     0.999000000000     0.225666666667    -0.28       
O        O      0.634566666667     0.881550000000     0.109266666667    -0.419      
O        O      0.476500000000     0.540850000000     0.233133333333    -0.527      
O        O      0.638266666667     0.749000000000     0.059000000000    -0.279      
O        O      0.574100000000     0.667650000000     0.228733333333    -0.493      
O        O      0.592566666667     0.917650000000     0.062066666667    -0.494      
O        O      0.643166666667     0.709150000000     0.266866666667    -0.527      
O        O      0.543133333333     0.877200000000     0.039466666667    -0.495      
O        O      0.361733333333     0.751000000000     0.274333333333    -0.279      
O        O      0.456866666667     0.622800000000     0.293866666667    -0.495      
O        O      0.367500000000     0.768100000000     0.131266666667    -0.43       
O        O      0.523500000000     0.959150000000     0.100200000000    -0.527      
O        O      0.532100000000     0.631550000000     0.275933333333    -0.42       
O        O      0.584533333333     0.921750000000     0.127900000000    -0.437      
O        O      0.623533333333     0.627200000000     0.206133333333    -0.495      
O        O      0.415466666667     0.578250000000     0.205433333333    -0.437      
O        O      0.411033333333     0.732550000000     0.098100000000    -0.45       
Zn       Zn     0.505166666667     0.922945000000     0.385970000000     1.222      
Zn       Zn     0.338500000000     0.827055000000     0.447363333333     1.222      
Zn       Zn     0.586033333333     0.719005000000     0.599696666667     1.225      
Zn       Zn     0.580633333333     0.969005000000     0.433030000000     1.225      
Zn       Zn     0.419366666667     0.530995000000     0.566970000000     1.225      
Zn       Zn     0.413966666667     0.780995000000     0.400303333333     1.225      
Zn       Zn     0.661500000000     0.672945000000     0.552636666667     1.222      
Zn       Zn     0.494833333333     0.577055000000     0.614030000000     1.222      
H        H      0.649466666667     0.872350000000     0.369133333333     0.022      
H        H      0.515266666667     0.932900000000     0.501133333333     0.081      
H        H      0.557966666667     0.809900000000     0.659400000000    -0.008      
H        H      0.608700000000     0.559900000000     0.492733333333    -0.007      
H        H      0.395666666667     0.913500000000     0.622466666667     0.026      
H        H      0.482800000000     0.877650000000     0.464200000000     0.024      
H        H      0.438633333333     0.610300000000     0.488866666667     0.071      
H        H      0.645466666667     0.767400000000     0.492933333333     0.005      
H        H      0.350533333333     0.627650000000     0.630866666667     0.022      
H        H      0.561366666667     0.889700000000     0.511133333333     0.071      
H        H      0.517200000000     0.622350000000     0.535800000000     0.024      
H        H      0.394700000000     0.860300000000     0.655533333333     0.069      
H        H      0.605300000000     0.639700000000     0.344466666667     0.069      
H        H      0.604333333333     0.586500000000     0.377533333333     0.026      
H        H      0.348600000000     0.817100000000     0.665533333333     0.085      
H        H      0.354533333333     0.732600000000     0.507066666667     0.005      
H        H      0.437666666667     0.663500000000     0.455800000000     0.024      
H        H      0.651400000000     0.682900000000     0.334466666667     0.085      
H        H      0.484733333333     0.567100000000     0.498866666667     0.081      
H        H      0.478800000000     0.982600000000     0.340400000000     0.006      
H        H      0.391300000000     0.940100000000     0.507266666667    -0.007      
H        H      0.562333333333     0.836500000000     0.544200000000     0.024      
H        H      0.521200000000     0.517400000000     0.659600000000     0.006      
H        H      0.442033333333     0.690100000000     0.340600000000    -0.008      
C        C      0.489866666667     0.933450000000     0.502500000000    -0.097      
C        C      0.529066666667     0.599150000000     0.519600000000     0.074      
C        C      0.607833333333     0.763650000000     0.544466666667     0.429      
C        C      0.583333333333     0.561950000000     0.493666666667     0.102      
C        C      0.343466666667     0.683450000000     0.335833333333    -0.106      
C        C      0.359266666667     0.717050000000     0.359900000000     0.012      
C        C      0.583333333333     0.811950000000     0.660333333333     0.103      
C        C      0.561700000000     0.547150000000     0.356633333333    -0.158      
C        C      0.588233333333     0.614600000000     0.341166666667    -0.068      
C        C      0.538000000000     0.542850000000     0.663766666667     0.106      
C        C      0.474066666667     0.967050000000     0.526566666667     0.01       
C        C      0.578433333333     0.864600000000     0.507833333333    -0.074      
C        C      0.579433333333     0.833050000000     0.527666666667     0.058      
C        C      0.441166666667     0.986350000000     0.622200000000     0.43       
C        C      0.392166666667     0.736350000000     0.455533333333     0.429      
C        C      0.567000000000     0.597450000000     0.517733333333    -0.159      
C        C      0.416666666667     0.688050000000     0.339666666667     0.103      
C        C      0.411166666667     0.865900000000     0.458566666667     0.438      
C        C      0.438300000000     0.952850000000     0.643366666667    -0.158      
C        C      0.412766666667     0.916950000000     0.639000000000     0.054      
C        C      0.470933333333     0.900850000000     0.480400000000     0.074      
C        C      0.504433333333     0.995500000000     0.447700000000     0.295      
C        C      0.422166666667     0.615900000000     0.625233333333     0.439      
C        C      0.588833333333     0.634100000000     0.541433333333     0.438      
C        C      0.559866666667     0.639800000000     0.627700000000     0.354      
C        C      0.420566666667     0.666950000000     0.472333333333     0.058      
C        C      0.563300000000     0.607450000000     0.649933333333    -0.032      
C        C      0.400333333333     0.652550000000     0.648933333333    -0.161      
C        C      0.525933333333     0.532950000000     0.473433333333     0.01       
C        C      0.436700000000     0.892550000000     0.350066666667    -0.032      
C        C      0.662233333333     0.745500000000     0.614366666667     0.294      
C        C      0.604966666667     0.797150000000     0.523300000000    -0.163      
C        C      0.393200000000     0.610200000000     0.538966666667     0.353      
C        C      0.577833333333     0.884100000000     0.374766666667     0.439      
C        C      0.603366666667     0.857450000000     0.483266666667    -0.028      
C        C      0.599666666667     0.847450000000     0.351066666667    -0.161      
C        C      0.637600000000     0.849150000000     0.352933333333     0.08       
C        C      0.433000000000     0.902550000000     0.482266666667    -0.159      
C        C      0.628666666667     0.792850000000     0.497100000000     0.111      
C        C      0.362400000000     0.650850000000     0.647066666667     0.08       
C        C      0.656533333333     0.816550000000     0.664166666667    -0.106      
C        C      0.411766666667     0.885400000000     0.658833333333    -0.068      
C        C      0.606800000000     0.889800000000     0.461033333333     0.353      
C        C      0.495566666667     0.504500000000     0.552300000000     0.295      
C        C      0.337766666667     0.754500000000     0.385633333333     0.294      
C        C      0.371333333333     0.707150000000     0.502900000000     0.111      
C        C      0.510133333333     0.566550000000     0.497500000000    -0.097      
C        C      0.395033333333     0.702850000000     0.476700000000    -0.163      
C        C      0.440133333333     0.860200000000     0.372300000000     0.354      
C        C      0.587233333333     0.583050000000     0.361000000000     0.054      
C        C      0.462000000000     0.957150000000     0.336233333333     0.106      
C        C      0.396633333333     0.642550000000     0.516733333333    -0.028      
C        C      0.421566666667     0.635400000000     0.492166666667    -0.074      
C        C      0.640733333333     0.782950000000     0.640100000000     0.012      
C        C      0.416666666667     0.938050000000     0.506333333333     0.102      
C        C      0.558833333333     0.513650000000     0.377800000000     0.43       
N        N      0.562766666667     0.529350000000     0.470966666667    -0.225      
N        N      0.396100000000     0.720650000000     0.362366666667    -0.225      
N        N      0.628933333333     0.821550000000     0.478266666667    -0.237      
N        N      0.462266666667     0.928450000000     0.355066666667    -0.236      
N        N      0.371066666667     0.678450000000     0.521733333333    -0.237      
N        N      0.537733333333     0.571550000000     0.644933333333    -0.236      
N        N      0.437233333333     0.970650000000     0.529033333333    -0.225      
N        N      0.603900000000     0.779350000000     0.637633333333    -0.225      
O        O      0.417866666667     0.828250000000     0.372100000000    -0.438      
O        O      0.534166666667     0.981900000000     0.368733333333    -0.431      
O        O      0.365433333333     0.618450000000     0.557400000000    -0.419      
O        O      0.422300000000     0.982550000000     0.598100000000    -0.45       
O        O      0.425900000000     0.832350000000     0.437933333333    -0.493      
O        O      0.407433333333     0.582350000000     0.604600000000    -0.494      
O        O      0.632500000000     0.731900000000     0.535400000000    -0.43       
O        O      0.582133333333     0.671750000000     0.627900000000    -0.438      
O        O      0.577700000000     0.517450000000     0.401900000000    -0.45       
O        O      0.471600000000     0.501000000000     0.441000000000    -0.28       
O        O      0.467900000000     0.868450000000     0.390733333333    -0.42       
O        O      0.465833333333     0.518100000000     0.631266666667    -0.431      
O        O      0.356833333333     0.790850000000     0.399800000000    -0.527      
O        O      0.588966666667     0.767450000000     0.568566666667    -0.45       
O        O      0.376466666667     0.872800000000     0.460533333333    -0.495      
O        O      0.528400000000     0.999000000000     0.559000000000    -0.28       
O        O      0.634566666667     0.881550000000     0.442600000000    -0.419      
O        O      0.476500000000     0.540850000000     0.566466666667    -0.527      
O        O      0.638266666667     0.749000000000     0.392333333333    -0.279      
O        O      0.574100000000     0.667650000000     0.562066666667    -0.493      
O        O      0.592566666667     0.917650000000     0.395400000000    -0.494      
O        O      0.643166666667     0.709150000000     0.600200000000    -0.527      
O        O      0.543133333333     0.877200000000     0.372800000000    -0.495      
O        O      0.361733333333     0.751000000000     0.607666666667    -0.279      
O        O      0.456866666667     0.622800000000     0.627200000000    -0.495      
O        O      0.367500000000     0.768100000000     0.464600000000    -0.43       
O        O      0.523500000000     0.959150000000     0.433533333333    -0.527      
O        O      0.532100000000     0.631550000000     0.609266666667    -0.42       
O        O      0.584533333333     0.921750000000     0.461233333333    -0.437      
O        O      0.623533333333     0.627200000000     0.539466666667    -0.495      
O        O      0.415466666667     0.578250000000     0.538766666667    -0.437      
O        O      0.411033333333     0.732550000000     0.431433333333    -0.45       
Zn       Zn     0.505166666667     0.922945000000     0.719303333333     1.222      
Zn       Zn     0.338500000000     0.827055000000     0.780696666667     1.222      
Zn       Zn     0.586033333333     0.719005000000     0.933030000000     1.225      
Zn       Zn     0.580633333333     0.969005000000     0.766363333333     1.225      
Zn       Zn     0.419366666667     0.530995000000     0.900303333333     1.225      
Zn       Zn     0.413966666667     0.780995000000     0.733636666667     1.225      
Zn       Zn     0.661500000000     0.672945000000     0.885970000000     1.222      
Zn       Zn     0.494833333333     0.577055000000     0.947363333333     1.222      
H        H      0.649466666667     0.872350000000     0.702466666667     0.022      
H        H      0.515266666667     0.932900000000     0.834466666667     0.081      
H        H      0.557966666667     0.809900000000     0.992733333333    -0.008      
H        H      0.608700000000     0.559900000000     0.826066666667    -0.007      
H        H      0.395666666667     0.913500000000     0.955800000000     0.026      
H        H      0.482800000000     0.877650000000     0.797533333333     0.024      
H        H      0.438633333333     0.610300000000     0.822200000000     0.071      
H        H      0.645466666667     0.767400000000     0.826266666667     0.005      
H        H      0.350533333333     0.627650000000     0.964200000000     0.022      
H        H      0.561366666667     0.889700000000     0.844466666667     0.071      
H        H      0.517200000000     0.622350000000     0.869133333333     0.024      
H        H      0.394700000000     0.860300000000     0.988866666667     0.069      
H        H      0.605300000000     0.639700000000     0.677800000000     0.069      
H        H      0.604333333333     0.586500000000     0.710866666667     0.026      
H        H      0.348600000000     0.817100000000     0.998866666667     0.085      
H        H      0.354533333333     0.732600000000     0.840400000000     0.005      
H        H      0.437666666667     0.663500000000     0.789133333333     0.024      
H        H      0.651400000000     0.682900000000     0.667800000000     0.085      
H        H      0.484733333333     0.567100000000     0.832200000000     0.081      
H        H      0.478800000000     0.982600000000     0.673733333333     0.006      
H        H      0.391300000000     0.940100000000     0.840600000000    -0.007      
H        H      0.562333333333     0.836500000000     0.877533333333     0.024      
H        H      0.521200000000     0.517400000000     0.992933333333     0.006      
H        H      0.442033333333     0.690100000000     0.673933333333    -0.008      
C        C      0.489866666667     0.933450000000     0.835833333333    -0.097      
C        C      0.529066666667     0.599150000000     0.852933333333     0.074      
C        C      0.607833333333     0.763650000000     0.877800000000     0.429      
C        C      0.583333333333     0.561950000000     0.827000000000     0.102      
C        C      0.343466666667     0.683450000000     0.669166666667    -0.106      
C        C      0.359266666667     0.717050000000     0.693233333333     0.012      
C        C      0.583333333333     0.811950000000     0.993666666667     0.103      
C        C      0.561700000000     0.547150000000     0.689966666667    -0.158      
C        C      0.588233333333     0.614600000000     0.674500000000    -0.068      
C        C      0.538000000000     0.542850000000     0.997100000000     0.106      
C        C      0.474066666667     0.967050000000     0.859900000000     0.01       
C        C      0.578433333333     0.864600000000     0.841166666667    -0.074      
C        C      0.579433333333     0.833050000000     0.861000000000     0.058      
C        C      0.441166666667     0.986350000000     0.955533333333     0.43       
C        C      0.392166666667     0.736350000000     0.788866666667     0.429      
C        C      0.567000000000     0.597450000000     0.851066666667    -0.159      
C        C      0.416666666667     0.688050000000     0.673000000000     0.103      
C        C      0.411166666667     0.865900000000     0.791900000000     0.438      
C        C      0.438300000000     0.952850000000     0.976700000000    -0.158      
C        C      0.412766666667     0.916950000000     0.972333333333     0.054      
C        C      0.470933333333     0.900850000000     0.813733333333     0.074      
C        C      0.504433333333     0.995500000000     0.781033333333     0.295      
C        C      0.422166666667     0.615900000000     0.958566666667     0.439      
C        C      0.588833333333     0.634100000000     0.874766666667     0.438      
C        C      0.559866666667     0.639800000000     0.961033333333     0.354      
C        C      0.420566666667     0.666950000000     0.805666666667     0.058      
C        C      0.563300000000     0.607450000000     0.983266666667    -0.032      
C        C      0.400333333333     0.652550000000     0.982266666667    -0.161      
C        C      0.525933333333     0.532950000000     0.806766666667     0.01       
C        C      0.436700000000     0.892550000000     0.683400000000    -0.032      
C        C      0.662233333333     0.745500000000     0.947700000000     0.294      
C        C      0.604966666667     0.797150000000     0.856633333333    -0.163      
C        C      0.393200000000     0.610200000000     0.872300000000     0.353      
C        C      0.577833333333     0.884100000000     0.708100000000     0.439      
C        C      0.603366666667     0.857450000000     0.816600000000    -0.028      
C        C      0.599666666667     0.847450000000     0.684400000000    -0.161      
C        C      0.637600000000     0.849150000000     0.686266666667     0.08       
C        C      0.433000000000     0.902550000000     0.815600000000    -0.159      
C        C      0.628666666667     0.792850000000     0.830433333333     0.111      
C        C      0.362400000000     0.650850000000     0.980400000000     0.08       
C        C      0.656533333333     0.816550000000     0.997500000000    -0.106      
C        C      0.411766666667     0.885400000000     0.992166666667    -0.068      
C        C      0.606800000000     0.889800000000     0.794366666667     0.353      
C        C      0.495566666667     0.504500000000     0.885633333333     0.295      
C        C      0.337766666667     0.754500000000     0.718966666667     0.294      
C        C      0.371333333333     0.707150000000     0.836233333333     0.111      
C        C      0.510133333333     0.566550000000     0.830833333333    -0.097      
C        C      0.395033333333     0.702850000000     0.810033333333    -0.163      
C        C      0.440133333333     0.860200000000     0.705633333333     0.354      
C        C      0.587233333333     0.583050000000     0.694333333333     0.054      
C        C      0.462000000000     0.957150000000     0.669566666667     0.106      
C        C      0.396633333333     0.642550000000     0.850066666667    -0.028      
C        C      0.421566666667     0.635400000000     0.825500000000    -0.074      
C        C      0.640733333333     0.782950000000     0.973433333333     0.012      
C        C      0.416666666667     0.938050000000     0.839666666667     0.102      
C        C      0.558833333333     0.513650000000     0.711133333333     0.43       
N        N      0.562766666667     0.529350000000     0.804300000000    -0.225      
N        N      0.396100000000     0.720650000000     0.695700000000    -0.225      
N        N      0.628933333333     0.821550000000     0.811600000000    -0.237      
N        N      0.462266666667     0.928450000000     0.688400000000    -0.236      
N        N      0.371066666667     0.678450000000     0.855066666667    -0.237      
N        N      0.537733333333     0.571550000000     0.978266666667    -0.236      
N        N      0.437233333333     0.970650000000     0.862366666667    -0.225      
N        N      0.603900000000     0.779350000000     0.970966666667    -0.225      
O        O      0.417866666667     0.828250000000     0.705433333333    -0.438      
O        O      0.534166666667     0.981900000000     0.702066666667    -0.431      
O        O      0.365433333333     0.618450000000     0.890733333333    -0.419      
O        O      0.422300000000     0.982550000000     0.931433333333    -0.45       
O        O      0.425900000000     0.832350000000     0.771266666667    -0.493      
O        O      0.407433333333     0.582350000000     0.937933333333    -0.494      
O        O      0.632500000000     0.731900000000     0.868733333333    -0.43       
O        O      0.582133333333     0.671750000000     0.961233333333    -0.438      
O        O      0.577700000000     0.517450000000     0.735233333333    -0.45       
O        O      0.471600000000     0.501000000000     0.774333333333    -0.28       
O        O      0.467900000000     0.868450000000     0.724066666667    -0.42       
O        O      0.465833333333     0.518100000000     0.964600000000    -0.431      
O        O      0.356833333333     0.790850000000     0.733133333333    -0.527      
O        O      0.588966666667     0.767450000000     0.901900000000    -0.45       
O        O      0.376466666667     0.872800000000     0.793866666667    -0.495      
O        O      0.528400000000     0.999000000000     0.892333333333    -0.28       
O        O      0.634566666667     0.881550000000     0.775933333333    -0.419      
O        O      0.476500000000     0.540850000000     0.899800000000    -0.527      
O        O      0.638266666667     0.749000000000     0.725666666667    -0.279      
O        O      0.574100000000     0.667650000000     0.895400000000    -0.493      
O        O      0.592566666667     0.917650000000     0.728733333333    -0.494      
O        O      0.643166666667     0.709150000000     0.933533333333    -0.527      
O        O      0.543133333333     0.877200000000     0.706133333333    -0.495      
O        O      0.361733333333     0.751000000000     0.941000000000    -0.279      
O        O      0.456866666667     0.622800000000     0.960533333333    -0.495      
O        O      0.367500000000     0.768100000000     0.797933333333    -0.43       
O        O      0.523500000000     0.959150000000     0.766866666667    -0.527      
O        O      0.532100000000     0.631550000000     0.942600000000    -0.42       
O        O      0.584533333333     0.921750000000     0.794566666667    -0.437      
O        O      0.623533333333     0.627200000000     0.872800000000    -0.495      
O        O      0.415466666667     0.578250000000     0.872100000000    -0.437      
O        O      0.411033333333     0.732550000000     0.764766666667    -0.45       
Zn       Zn     0.838500000000     0.422945000000     0.052636666667     1.222      
Zn       Zn     0.671833333333     0.327055000000     0.114030000000     1.222      
Zn       Zn     0.919366666667     0.219005000000     0.266363333333     1.225      
Zn       Zn     0.913966666667     0.469005000000     0.099696666667     1.225      
Zn       Zn     0.752700000000     0.030995000000     0.233636666667     1.225      
Zn       Zn     0.747300000000     0.280995000000     0.066970000000     1.225      
Zn       Zn     0.994833333333     0.172945000000     0.219303333333     1.222      
Zn       Zn     0.828166666667     0.077055000000     0.280696666667     1.222      
H        H      0.982800000000     0.372350000000     0.035800000000     0.022      
H        H      0.848600000000     0.432900000000     0.167800000000     0.081      
H        H      0.891300000000     0.309900000000     0.326066666667    -0.008      
H        H      0.942033333333     0.059900000000     0.159400000000    -0.007      
H        H      0.729000000000     0.413500000000     0.289133333333     0.026      
H        H      0.816133333333     0.377650000000     0.130866666667     0.024      
H        H      0.771966666667     0.110300000000     0.155533333333     0.071      
H        H      0.978800000000     0.267400000000     0.159600000000     0.005      
H        H      0.683866666667     0.127650000000     0.297533333333     0.022      
H        H      0.894700000000     0.389700000000     0.177800000000     0.071      
H        H      0.850533333333     0.122350000000     0.202466666667     0.024      
H        H      0.728033333333     0.360300000000     0.322200000000     0.069      
H        H      0.938633333333     0.139700000000     0.011133333333     0.069      
H        H      0.937666666667     0.086500000000     0.044200000000     0.026      
H        H      0.681933333333     0.317100000000     0.332200000000     0.085      
H        H      0.687866666667     0.232600000000     0.173733333333     0.005      
H        H      0.771000000000     0.163500000000     0.122466666667     0.024      
H        H      0.984733333333     0.182900000000     0.001133333333     0.085      
H        H      0.818066666667     0.067100000000     0.165533333333     0.081      
H        H      0.812133333333     0.482600000000     0.007066666667     0.006      
H        H      0.724633333333     0.440100000000     0.173933333333    -0.007      
H        H      0.895666666667     0.336500000000     0.210866666667     0.024      
H        H      0.854533333333     0.017400000000     0.326266666667     0.006      
H        H      0.775366666667     0.190100000000     0.007266666667    -0.008      
C        C      0.823200000000     0.433450000000     0.169166666667    -0.097      
C        C      0.862400000000     0.099150000000     0.186266666667     0.074      
C        C      0.941166666667     0.263650000000     0.211133333333     0.429      
C        C      0.916666666667     0.061950000000     0.160333333333     0.102      
C        C      0.676800000000     0.183450000000     0.002500000000    -0.106      
C        C      0.692600000000     0.217050000000     0.026566666667     0.012      
C        C      0.916666666667     0.311950000000     0.327000000000     0.103      
C        C      0.895033333333     0.047150000000     0.023300000000    -0.158      
C        C      0.921566666667     0.114600000000     0.007833333333    -0.068      
C        C      0.871333333333     0.042850000000     0.330433333333     0.106      
C        C      0.807400000000     0.467050000000     0.193233333333     0.01       
C        C      0.911766666667     0.364600000000     0.174500000000    -0.074      
C        C      0.912766666667     0.333050000000     0.194333333333     0.058      
C        C      0.774500000000     0.486350000000     0.288866666667     0.43       
C        C      0.725500000000     0.236350000000     0.122200000000     0.429      
C        C      0.900333333333     0.097450000000     0.184400000000    -0.159      
C        C      0.750000000000     0.188050000000     0.006333333333     0.103      
C        C      0.744500000000     0.365900000000     0.125233333333     0.438      
C        C      0.771633333333     0.452850000000     0.310033333333    -0.158      
C        C      0.746100000000     0.416950000000     0.305666666667     0.054      
C        C      0.804266666667     0.400850000000     0.147066666667     0.074      
C        C      0.837766666667     0.495500000000     0.114366666667     0.295      
C        C      0.755500000000     0.115900000000     0.291900000000     0.439      
C        C      0.922166666667     0.134100000000     0.208100000000     0.438      
C        C      0.893200000000     0.139800000000     0.294366666667     0.354      
C        C      0.753900000000     0.166950000000     0.139000000000     0.058      
C        C      0.896633333333     0.107450000000     0.316600000000    -0.032      
C        C      0.733666666667     0.152550000000     0.315600000000    -0.161      
C        C      0.859266666667     0.032950000000     0.140100000000     0.01       
C        C      0.770033333333     0.392550000000     0.016733333333    -0.032      
C        C      0.995566666667     0.245500000000     0.281033333333     0.294      
C        C      0.938300000000     0.297150000000     0.189966666667    -0.163      
C        C      0.726533333333     0.110200000000     0.205633333333     0.353      
C        C      0.911166666667     0.384100000000     0.041433333333     0.439      
C        C      0.936700000000     0.357450000000     0.149933333333    -0.028      
C        C      0.933000000000     0.347450000000     0.017733333333    -0.161      
C        C      0.970933333333     0.349150000000     0.019600000000     0.08       
C        C      0.766333333333     0.402550000000     0.148933333333    -0.159      
C        C      0.962000000000     0.292850000000     0.163766666667     0.111      
C        C      0.695733333333     0.150850000000     0.313733333333     0.08       
C        C      0.989866666667     0.316550000000     0.330833333333    -0.106      
C        C      0.745100000000     0.385400000000     0.325500000000    -0.068      
C        C      0.940133333333     0.389800000000     0.127700000000     0.353      
C        C      0.828900000000     0.004500000000     0.218966666667     0.295      
C        C      0.671100000000     0.254500000000     0.052300000000     0.294      
C        C      0.704666666667     0.207150000000     0.169566666667     0.111      
C        C      0.843466666667     0.066550000000     0.164166666667    -0.097      
C        C      0.728366666667     0.202850000000     0.143366666667    -0.163      
C        C      0.773466666667     0.360200000000     0.038966666667     0.354      
C        C      0.920566666667     0.083050000000     0.027666666667     0.054      
C        C      0.795333333333     0.457150000000     0.002900000000     0.106      
C        C      0.729966666667     0.142550000000     0.183400000000    -0.028      
C        C      0.754900000000     0.135400000000     0.158833333333    -0.074      
C        C      0.974066666667     0.282950000000     0.306766666667     0.012      
C        C      0.750000000000     0.438050000000     0.173000000000     0.102      
C        C      0.892166666667     0.013650000000     0.044466666667     0.43       
N        N      0.896100000000     0.029350000000     0.137633333333    -0.225      
N        N      0.729433333333     0.220650000000     0.029033333333    -0.225      
N        N      0.962266666667     0.321550000000     0.144933333333    -0.237      
N        N      0.795600000000     0.428450000000     0.021733333333    -0.236      
N        N      0.704400000000     0.178450000000     0.188400000000    -0.237      
N        N      0.871066666667     0.071550000000     0.311600000000    -0.236      
N        N      0.770566666667     0.470650000000     0.195700000000    -0.225      
N        N      0.937233333333     0.279350000000     0.304300000000    -0.225      
O        O      0.751200000000     0.328250000000     0.038766666667    -0.438      
O        O      0.867500000000     0.481900000000     0.035400000000    -0.431      
O        O      0.698766666667     0.118450000000     0.224066666667    -0.419      
O        O      0.755633333333     0.482550000000     0.264766666667    -0.45       
O        O      0.759233333333     0.332350000000     0.104600000000    -0.493      
O        O      0.740766666667     0.082350000000     0.271266666667    -0.494      
O        O      0.965833333333     0.231900000000     0.202066666667    -0.43       
O        O      0.915466666667     0.171750000000     0.294566666667    -0.438      
O        O      0.911033333333     0.017450000000     0.068566666667    -0.45       
O        O      0.804933333333     0.001000000000     0.107666666667    -0.28       
O        O      0.801233333333     0.368450000000     0.057400000000    -0.42       
O        O      0.799166666667     0.018100000000     0.297933333333    -0.431      
O        O      0.690166666667     0.290850000000     0.066466666667    -0.527      
O        O      0.922300000000     0.267450000000     0.235233333333    -0.45       
O        O      0.709800000000     0.372800000000     0.127200000000    -0.495      
O        O      0.861733333333     0.499000000000     0.225666666667    -0.28       
O        O      0.967900000000     0.381550000000     0.109266666667    -0.419      
O        O      0.809833333333     0.040850000000     0.233133333333    -0.527      
O        O      0.971600000000     0.249000000000     0.059000000000    -0.279      
O        O      0.907433333333     0.167650000000     0.228733333333    -0.493      
O        O      0.925900000000     0.417650000000     0.062066666667    -0.494      
O        O      0.976500000000     0.209150000000     0.266866666667    -0.527      
O        O      0.876466666667     0.377200000000     0.039466666667    -0.495      
O        O      0.695066666667     0.251000000000     0.274333333333    -0.279      
O        O      0.790200000000     0.122800000000     0.293866666667    -0.495      
O        O      0.700833333333     0.268100000000     0.131266666667    -0.43       
O        O      0.856833333333     0.459150000000     0.100200000000    -0.527      
O        O      0.865433333333     0.131550000000     0.275933333333    -0.42       
O        O      0.917866666667     0.421750000000     0.127900000000    -0.437      
O        O      0.956866666667     0.127200000000     0.206133333333    -0.495      
O        O      0.748800000000     0.078250000000     0.205433333333    -0.437      
O        O      0.744366666667     0.232550000000     0.098100000000    -0.45       
Zn       Zn     0.838500000000     0.422945000000     0.385970000000     1.222      
Zn       Zn     0.671833333333     0.327055000000     0.447363333333     1.222      
Zn       Zn     0.919366666667     0.219005000000     0.599696666667     1.225      
Zn       Zn     0.913966666667     0.469005000000     0.433030000000     1.225      
Zn       Zn     0.752700000000     0.030995000000     0.566970000000     1.225      
Zn       Zn     0.747300000000     0.280995000000     0.400303333333     1.225      
Zn       Zn     0.994833333333     0.172945000000     0.552636666667     1.222      
Zn       Zn     0.828166666667     0.077055000000     0.614030000000     1.222      
H        H      0.982800000000     0.372350000000     0.369133333333     0.022      
H        H      0.848600000000     0.432900000000     0.501133333333     0.081      
H        H      0.891300000000     0.309900000000     0.659400000000    -0.008      
H        H      0.942033333333     0.059900000000     0.492733333333    -0.007      
H        H      0.729000000000     0.413500000000     0.622466666667     0.026      
H        H      0.816133333333     0.377650000000     0.464200000000     0.024      
H        H      0.771966666667     0.110300000000     0.488866666667     0.071      
H        H      0.978800000000     0.267400000000     0.492933333333     0.005      
H        H      0.683866666667     0.127650000000     0.630866666667     0.022      
H        H      0.894700000000     0.389700000000     0.511133333333     0.071      
H        H      0.850533333333     0.122350000000     0.535800000000     0.024      
H        H      0.728033333333     0.360300000000     0.655533333333     0.069      
H        H      0.938633333333     0.139700000000     0.344466666667     0.069      
H        H      0.937666666667     0.086500000000     0.377533333333     0.026      
H        H      0.681933333333     0.317100000000     0.665533333333     0.085      
H        H      0.687866666667     0.232600000000     0.507066666667     0.005      
H        H      0.771000000000     0.163500000000     0.455800000000     0.024      
H        H      0.984733333333     0.182900000000     0.334466666667     0.085      
H        H      0.818066666667     0.067100000000     0.498866666667     0.081      
H        H      0.812133333333     0.482600000000     0.340400000000     0.006      
H        H      0.724633333333     0.440100000000     0.507266666667    -0.007      
H        H      0.895666666667     0.336500000000     0.544200000000     0.024      
H        H      0.854533333333     0.017400000000     0.659600000000     0.006      
H        H      0.775366666667     0.190100000000     0.340600000000    -0.008      
C        C      0.823200000000     0.433450000000     0.502500000000    -0.097      
C        C      0.862400000000     0.099150000000     0.519600000000     0.074      
C        C      0.941166666667     0.263650000000     0.544466666667     0.429      
C        C      0.916666666667     0.061950000000     0.493666666667     0.102      
C        C      0.676800000000     0.183450000000     0.335833333333    -0.106      
C        C      0.692600000000     0.217050000000     0.359900000000     0.012      
C        C      0.916666666667     0.311950000000     0.660333333333     0.103      
C        C      0.895033333333     0.047150000000     0.356633333333    -0.158      
C        C      0.921566666667     0.114600000000     0.341166666667    -0.068      
C        C      0.871333333333     0.042850000000     0.663766666667     0.106      
C        C      0.807400000000     0.467050000000     0.526566666667     0.01       
C        C      0.911766666667     0.364600000000     0.507833333333    -0.074      
C        C      0.912766666667     0.333050000000     0.527666666667     0.058      
C        C      0.774500000000     0.486350000000     0.622200000000     0.43       
C        C      0.725500000000     0.236350000000     0.455533333333     0.429      
C        C      0.900333333333     0.097450000000     0.517733333333    -0.159      
C        C      0.750000000000     0.188050000000     0.339666666667     0.103      
C        C      0.744500000000     0.365900000000     0.458566666667     0.438      
C        C      0.771633333333     0.452850000000     0.643366666667    -0.158      
C        C      0.746100000000     0.416950000000     0.639000000000     0.054      
C        C      0.804266666667     0.400850000000     0.480400000000     0.074      
C        C      0.837766666667     0.495500000000     0.447700000000     0.295      
C        C      0.755500000000     0.115900000000     0.625233333333     0.439      
C        C      0.922166666667     0.134100000000     0.541433333333     0.438      
C        C      0.893200000000     0.139800000000     0.627700000000     0.354      
C        C      0.753900000000     0.166950000000     0.472333333333     0.058      
C        C      0.896633333333     0.107450000000     0.649933333333    -0.032      
C        C      0.733666666667     0.152550000000     0.648933333333    -0.161      
C        C      0.859266666667     0.032950000000     0.473433333333     0.01       
C        C      0.770033333333     0.392550000000     0.350066666667    -0.032      
C        C      0.995566666667     0.245500000000     0.614366666667     0.294      
C        C      0.938300000000     0.297150000000     0.523300000000    -0.163      
C        C      0.726533333333     0.110200000000     0.538966666667     0.353      
C        C      0.911166666667     0.384100000000     0.374766666667     0.439      
C        C      0.936700000000     0.357450000000     0.483266666667    -0.028      
C        C      0.933000000000     0.347450000000     0.351066666667    -0.161      
C        C      0.970933333333     0.349150000000     0.352933333333     0.08       
C        C      0.766333333333     0.402550000000     0.482266666667    -0.159      
C        C      0.962000000000     0.292850000000     0.497100000000     0.111      
C        C      0.695733333333     0.150850000000     0.647066666667     0.08       
C        C      0.989866666667     0.316550000000     0.664166666667    -0.106      
C        C      0.745100000000     0.385400000000     0.658833333333    -0.068      
C        C      0.940133333333     0.389800000000     0.461033333333     0.353      
C        C      0.828900000000     0.004500000000     0.552300000000     0.295      
C        C      0.671100000000     0.254500000000     0.385633333333     0.294      
C        C      0.704666666667     0.207150000000     0.502900000000     0.111      
C        C      0.843466666667     0.066550000000     0.497500000000    -0.097      
C        C      0.728366666667     0.202850000000     0.476700000000    -0.163      
C        C      0.773466666667     0.360200000000     0.372300000000     0.354      
C        C      0.920566666667     0.083050000000     0.361000000000     0.054      
C        C      0.795333333333     0.457150000000     0.336233333333     0.106      
C        C      0.729966666667     0.142550000000     0.516733333333    -0.028      
C        C      0.754900000000     0.135400000000     0.492166666667    -0.074      
C        C      0.974066666667     0.282950000000     0.640100000000     0.012      
C        C      0.750000000000     0.438050000000     0.506333333333     0.102      
C        C      0.892166666667     0.013650000000     0.377800000000     0.43       
N        N      0.896100000000     0.029350000000     0.470966666667    -0.225      
N        N      0.729433333333     0.220650000000     0.362366666667    -0.225      
N        N      0.962266666667     0.321550000000     0.478266666667    -0.237      
N        N      0.795600000000     0.428450000000     0.355066666667    -0.236      
N        N      0.704400000000     0.178450000000     0.521733333333    -0.237      
N        N      0.871066666667     0.071550000000     0.644933333333    -0.236      
N        N      0.770566666667     0.470650000000     0.529033333333    -0.225      
N        N      0.937233333333     0.279350000000     0.637633333333    -0.225      
O        O      0.751200000000     0.328250000000     0.372100000000    -0.438      
O        O      0.867500000000     0.481900000000     0.368733333333    -0.431      
O        O      0.698766666667     0.118450000000     0.557400000000    -0.419      
O        O      0.755633333333     0.482550000000     0.598100000000    -0.45       
O        O      0.759233333333     0.332350000000     0.437933333333    -0.493      
O        O      0.740766666667     0.082350000000     0.604600000000    -0.494      
O        O      0.965833333333     0.231900000000     0.535400000000    -0.43       
O        O      0.915466666667     0.171750000000     0.627900000000    -0.438      
O        O      0.911033333333     0.017450000000     0.401900000000    -0.45       
O        O      0.804933333333     0.001000000000     0.441000000000    -0.28       
O        O      0.801233333333     0.368450000000     0.390733333333    -0.42       
O        O      0.799166666667     0.018100000000     0.631266666667    -0.431      
O        O      0.690166666667     0.290850000000     0.399800000000    -0.527      
O        O      0.922300000000     0.267450000000     0.568566666667    -0.45       
O        O      0.709800000000     0.372800000000     0.460533333333    -0.495      
O        O      0.861733333333     0.499000000000     0.559000000000    -0.28       
O        O      0.967900000000     0.381550000000     0.442600000000    -0.419      
O        O      0.809833333333     0.040850000000     0.566466666667    -0.527      
O        O      0.971600000000     0.249000000000     0.392333333333    -0.279      
O        O      0.907433333333     0.167650000000     0.562066666667    -0.493      
O        O      0.925900000000     0.417650000000     0.395400000000    -0.494      
O        O      0.976500000000     0.209150000000     0.600200000000    -0.527      
O        O      0.876466666667     0.377200000000     0.372800000000    -0.495      
O        O      0.695066666667     0.251000000000     0.607666666667    -0.279      
O        O      0.790200000000     0.122800000000     0.627200000000    -0.495      
O        O      0.700833333333     0.268100000000     0.464600000000    -0.43       
O        O      0.856833333333     0.459150000000     0.433533333333    -0.527      
O        O      0.865433333333     0.131550000000     0.609266666667    -0.42       
O        O      0.917866666667     0.421750000000     0.461233333333    -0.437      
O        O      0.956866666667     0.127200000000     0.539466666667    -0.495      
O        O      0.748800000000     0.078250000000     0.538766666667    -0.437      
O        O      0.744366666667     0.232550000000     0.431433333333    -0.45       
Zn       Zn     0.838500000000     0.422945000000     0.719303333333     1.222      
Zn       Zn     0.671833333333     0.327055000000     0.780696666667     1.222      
Zn       Zn     0.919366666667     0.219005000000     0.933030000000     1.225      
Zn       Zn     0.913966666667     0.469005000000     0.766363333333     1.225      
Zn       Zn     0.752700000000     0.030995000000     0.900303333333     1.225      
Zn       Zn     0.747300000000     0.280995000000     0.733636666667     1.225      
Zn       Zn     0.994833333333     0.172945000000     0.885970000000     1.222      
Zn       Zn     0.828166666667     0.077055000000     0.947363333333     1.222      
H        H      0.982800000000     0.372350000000     0.702466666667     0.022      
H        H      0.848600000000     0.432900000000     0.834466666667     0.081      
H        H      0.891300000000     0.309900000000     0.992733333333    -0.008      
H        H      0.942033333333     0.059900000000     0.826066666667    -0.007      
H        H      0.729000000000     0.413500000000     0.955800000000     0.026      
H        H      0.816133333333     0.377650000000     0.797533333333     0.024      
H        H      0.771966666667     0.110300000000     0.822200000000     0.071      
H        H      0.978800000000     0.267400000000     0.826266666667     0.005      
H        H      0.683866666667     0.127650000000     0.964200000000     0.022      
H        H      0.894700000000     0.389700000000     0.844466666667     0.071      
H        H      0.850533333333     0.122350000000     0.869133333333     0.024      
H        H      0.728033333333     0.360300000000     0.988866666667     0.069      
H        H      0.938633333333     0.139700000000     0.677800000000     0.069      
H        H      0.937666666667     0.086500000000     0.710866666667     0.026      
H        H      0.681933333333     0.317100000000     0.998866666667     0.085      
H        H      0.687866666667     0.232600000000     0.840400000000     0.005      
H        H      0.771000000000     0.163500000000     0.789133333333     0.024      
H        H      0.984733333333     0.182900000000     0.667800000000     0.085      
H        H      0.818066666667     0.067100000000     0.832200000000     0.081      
H        H      0.812133333333     0.482600000000     0.673733333333     0.006      
H        H      0.724633333333     0.440100000000     0.840600000000    -0.007      
H        H      0.895666666667     0.336500000000     0.877533333333     0.024      
H        H      0.854533333333     0.017400000000     0.992933333333     0.006      
H        H      0.775366666667     0.190100000000     0.673933333333    -0.008      
C        C      0.823200000000     0.433450000000     0.835833333333    -0.097      
C        C      0.862400000000     0.099150000000     0.852933333333     0.074      
C        C      0.941166666667     0.263650000000     0.877800000000     0.429      
C        C      0.916666666667     0.061950000000     0.827000000000     0.102      
C        C      0.676800000000     0.183450000000     0.669166666667    -0.106      
C        C      0.692600000000     0.217050000000     0.693233333333     0.012      
C        C      0.916666666667     0.311950000000     0.993666666667     0.103      
C        C      0.895033333333     0.047150000000     0.689966666667    -0.158      
C        C      0.921566666667     0.114600000000     0.674500000000    -0.068      
C        C      0.871333333333     0.042850000000     0.997100000000     0.106      
C        C      0.807400000000     0.467050000000     0.859900000000     0.01       
C        C      0.911766666667     0.364600000000     0.841166666667    -0.074      
C        C      0.912766666667     0.333050000000     0.861000000000     0.058      
C        C      0.774500000000     0.486350000000     0.955533333333     0.43       
C        C      0.725500000000     0.236350000000     0.788866666667     0.429      
C        C      0.900333333333     0.097450000000     0.851066666667    -0.159      
C        C      0.750000000000     0.188050000000     0.673000000000     0.103      
C        C      0.744500000000     0.365900000000     0.791900000000     0.438      
C        C      0.771633333333     0.452850000000     0.976700000000    -0.158      
C        C      0.746100000000     0.416950000000     0.972333333333     0.054      
C        C      0.804266666667     0.400850000000     0.813733333333     0.074      
C        C      0.837766666667     0.495500000000     0.781033333333     0.295      
C        C      0.755500000000     0.115900000000     0.958566666667     0.439      
C        C      0.922166666667     0.134100000000     0.874766666667     0.438      
C        C      0.893200000000     0.139800000000     0.961033333333     0.354      
C        C      0.753900000000     0.166950000000     0.805666666667     0.058      
C        C      0.896633333333     0.107450000000     0.983266666667    -0.032      
C        C      0.733666666667     0.152550000000     0.982266666667    -0.161      
C        C      0.859266666667     0.032950000000     0.806766666667     0.01       
C        C      0.770033333333     0.392550000000     0.683400000000    -0.032      
C        C      0.995566666667     0.245500000000     0.947700000000     0.294      
C        C      0.938300000000     0.297150000000     0.856633333333    -0.163      
C        C      0.726533333333     0.110200000000     0.872300000000     0.353      
C        C      0.911166666667     0.384100000000     0.708100000000     0.439      
C        C      0.936700000000     0.357450000000     0.816600000000    -0.028      
C        C      0.933000000000     0.347450000000     0.684400000000    -0.161      
C        C      0.970933333333     0.349150000000     0.686266666667     0.08       
C        C      0.766333333333     0.402550000000     0.815600000000    -0.159      
C        C      0.962000000000     0.292850000000     0.830433333333     0.111      
C        C      0.695733333333     0.150850000000     0.980400000000     0.08       
C        C      0.989866666667     0.316550000000     0.997500000000    -0.106      
C        C      0.745100000000     0.385400000000     0.992166666667    -0.068      
C        C      0.940133333333     0.389800000000     0.794366666667     0.353      
C        C      0.828900000000     0.004500000000     0.885633333333     0.295      
C        C      0.671100000000     0.254500000000     0.718966666667     0.294      
C        C      0.704666666667     0.207150000000     0.836233333333     0.111      
C        C      0.843466666667     0.066550000000     0.830833333333    -0.097      
C        C      0.728366666667     0.202850000000     0.810033333333    -0.163      
C        C      0.773466666667     0.360200000000     0.705633333333     0.354      
C        C      0.920566666667     0.083050000000     0.694333333333     0.054      
C        C      0.795333333333     0.457150000000     0.669566666667     0.106      
C        C      0.729966666667     0.142550000000     0.850066666667    -0.028      
C        C      0.754900000000     0.135400000000     0.825500000000    -0.074      
C        C      0.974066666667     0.282950000000     0.973433333333     0.012      
C        C      0.750000000000     0.438050000000     0.839666666667     0.102      
C        C      0.892166666667     0.013650000000     0.711133333333     0.43       
N        N      0.896100000000     0.029350000000     0.804300000000    -0.225      
N        N      0.729433333333     0.220650000000     0.695700000000    -0.225      
N        N      0.962266666667     0.321550000000     0.811600000000    -0.237      
N        N      0.795600000000     0.428450000000     0.688400000000    -0.236      
N        N      0.704400000000     0.178450000000     0.855066666667    -0.237      
N        N      0.871066666667     0.071550000000     0.978266666667    -0.236      
N        N      0.770566666667     0.470650000000     0.862366666667    -0.225      
N        N      0.937233333333     0.279350000000     0.970966666667    -0.225      
O        O      0.751200000000     0.328250000000     0.705433333333    -0.438      
O        O      0.867500000000     0.481900000000     0.702066666667    -0.431      
O        O      0.698766666667     0.118450000000     0.890733333333    -0.419      
O        O      0.755633333333     0.482550000000     0.931433333333    -0.45       
O        O      0.759233333333     0.332350000000     0.771266666667    -0.493      
O        O      0.740766666667     0.082350000000     0.937933333333    -0.494      
O        O      0.965833333333     0.231900000000     0.868733333333    -0.43       
O        O      0.915466666667     0.171750000000     0.961233333333    -0.438      
O        O      0.911033333333     0.017450000000     0.735233333333    -0.45       
O        O      0.804933333333     0.001000000000     0.774333333333    -0.28       
O        O      0.801233333333     0.368450000000     0.724066666667    -0.42       
O        O      0.799166666667     0.018100000000     0.964600000000    -0.431      
O        O      0.690166666667     0.290850000000     0.733133333333    -0.527      
O        O      0.922300000000     0.267450000000     0.901900000000    -0.45       
O        O      0.709800000000     0.372800000000     0.793866666667    -0.495      
O        O      0.861733333333     0.499000000000     0.892333333333    -0.28       
O        O      0.967900000000     0.381550000000     0.775933333333    -0.419      
O        O      0.809833333333     0.040850000000     0.899800000000    -0.527      
O        O      0.971600000000     0.249000000000     0.725666666667    -0.279      
O        O      0.907433333333     0.167650000000     0.895400000000    -0.493      
O        O      0.925900000000     0.417650000000     0.728733333333    -0.494      
O        O      0.976500000000     0.209150000000     0.933533333333    -0.527      
O        O      0.876466666667     0.377200000000     0.706133333333    -0.495      
O        O      0.695066666667     0.251000000000     0.941000000000    -0.279      
O        O      0.790200000000     0.122800000000     0.960533333333    -0.495      
O        O      0.700833333333     0.268100000000     0.797933333333    -0.43       
O        O      0.856833333333     0.459150000000     0.766866666667    -0.527      
O        O      0.865433333333     0.131550000000     0.942600000000    -0.42       
O        O      0.917866666667     0.421750000000     0.794566666667    -0.437      
O        O      0.956866666667     0.127200000000     0.872800000000    -0.495      
O        O      0.748800000000     0.078250000000     0.872100000000    -0.437      
O        O      0.744366666667     0.232550000000     0.764766666667    -0.45       
Zn       Zn     0.838500000000     0.922945000000     0.052636666667     1.222      
Zn       Zn     0.671833333333     0.827055000000     0.114030000000     1.222      
Zn       Zn     0.919366666667     0.719005000000     0.266363333333     1.225      
Zn       Zn     0.913966666667     0.969005000000     0.099696666667     1.225      
Zn       Zn     0.752700000000     0.530995000000     0.233636666667     1.225      
Zn       Zn     0.747300000000     0.780995000000     0.066970000000     1.225      
Zn       Zn     0.994833333333     0.672945000000     0.219303333333     1.222      
Zn       Zn     0.828166666667     0.577055000000     0.280696666667     1.222      
H        H      0.982800000000     0.872350000000     0.035800000000     0.022      
H        H      0.848600000000     0.932900000000     0.167800000000     0.081      
H        H      0.891300000000     0.809900000000     0.326066666667    -0.008      
H        H      0.942033333333     0.559900000000     0.159400000000    -0.007      
H        H      0.729000000000     0.913500000000     0.289133333333     0.026      
H        H      0.816133333333     0.877650000000     0.130866666667     0.024      
H        H      0.771966666667     0.610300000000     0.155533333333     0.071      
H        H      0.978800000000     0.767400000000     0.159600000000     0.005      
H        H      0.683866666667     0.627650000000     0.297533333333     0.022      
H        H      0.894700000000     0.889700000000     0.177800000000     0.071      
H        H      0.850533333333     0.622350000000     0.202466666667     0.024      
H        H      0.728033333333     0.860300000000     0.322200000000     0.069      
H        H      0.938633333333     0.639700000000     0.011133333333     0.069      
H        H      0.937666666667     0.586500000000     0.044200000000     0.026      
H        H      0.681933333333     0.817100000000     0.332200000000     0.085      
H        H      0.687866666667     0.732600000000     0.173733333333     0.005      
H        H      0.771000000000     0.663500000000     0.122466666667     0.024      
H        H      0.984733333333     0.682900000000     0.001133333333     0.085      
H        H      0.818066666667     0.567100000000     0.165533333333     0.081      
H        H      0.812133333333     0.982600000000     0.007066666667     0.006      
H        H      0.724633333333     0.940100000000     0.173933333333    -0.007      
H        H      0.895666666667     0.836500000000     0.210866666667     0.024      
H        H      0.854533333333     0.517400000000     0.326266666667     0.006      
H        H      0.775366666667     0.690100000000     0.007266666667    -0.008      
C        C      0.823200000000     0.933450000000     0.169166666667    -0.097      
C        C      0.862400000000     0.599150000000     0.186266666667     0.074      
C        C      0.941166666667     0.763650000000     0.211133333333     0.429      
C        C      0.916666666667     0.561950000000     0.160333333333     0.102      
C        C      0.676800000000     0.683450000000     0.002500000000    -0.106      
C        C      0.692600000000     0.717050000000     0.026566666667     0.012      
C        C      0.916666666667     0.811950000000     0.327000000000     0.103      
C        C      0.895033333333     0.547150000000     0.023300000000    -0.158      
C        C      0.921566666667     0.614600000000     0.007833333333    -0.068      
C        C      0.871333333333     0.542850000000     0.330433333333     0.106      
C        C      0.807400000000     0.967050000000     0.193233333333     0.01       
C        C      0.911766666667     0.864600000000     0.174500000000    -0.074      
C        C      0.912766666667     0.833050000000     0.194333333333     0.058      
C        C      0.774500000000     0.986350000000     0.288866666667     0.43       
C        C      0.725500000000     0.736350000000     0.122200000000     0.429      
C        C      0.900333333333     0.597450000000     0.184400000000    -0.159      
C        C      0.750000000000     0.688050000000     0.006333333333     0.103      
C        C      0.744500000000     0.865900000000     0.125233333333     0.438      
C        C      0.771633333333     0.952850000000     0.310033333333    -0.158      
C        C      0.746100000000     0.916950000000     0.305666666667     0.054      
C        C      0.804266666667     0.900850000000     0.147066666667     0.074      
C        C      0.837766666667     0.995500000000     0.114366666667     0.295      
C        C      0.755500000000     0.615900000000     0.291900000000     0.439      
C        C      0.922166666667     0.634100000000     0.208100000000     0.438      
C        C      0.893200000000     0.639800000000     0.294366666667     0.354      
C        C      0.753900000000     0.666950000000     0.139000000000     0.058      
C        C      0.896633333333     0.607450000000     0.316600000000    -0.032      
C        C      0.733666666667     0.652550000000     0.315600000000    -0.161      
C        C      0.859266666667     0.532950000000     0.140100000000     0.01       
C        C      0.770033333333     0.892550000000     0.016733333333    -0.032      
C        C      0.995566666667     0.745500000000     0.281033333333     0.294      
C        C      0.938300000000     0.797150000000     0.189966666667    -0.163      
C        C      0.726533333333     0.610200000000     0.205633333333     0.353      
C        C      0.911166666667     0.884100000000     0.041433333333     0.439      
C        C      0.936700000000     0.857450000000     0.149933333333    -0.028      
C        C      0.933000000000     0.847450000000     0.017733333333    -0.161      
C        C      0.970933333333     0.849150000000     0.019600000000     0.08       
C        C      0.766333333333     0.902550000000     0.148933333333    -0.159      
C        C      0.962000000000     0.792850000000     0.163766666667     0.111      
C        C      0.695733333333     0.650850000000     0.313733333333     0.08       
C        C      0.989866666667     0.816550000000     0.330833333333    -0.106      
C        C      0.745100000000     0.885400000000     0.325500000000    -0.068      
C        C      0.940133333333     0.889800000000     0.127700000000     0.353      
C        C      0.828900000000     0.504500000000     0.218966666667     0.295      
C        C      0.671100000000     0.754500000000     0.052300000000     0.294      
C        C      0.704666666667     0.707150000000     0.169566666667     0.111      
C        C      0.843466666667     0.566550000000     0.164166666667    -0.097      
C        C      0.728366666667     0.702850000000     0.143366666667    -0.163      
C        C      0.773466666667     0.860200000000     0.038966666667     0.354      
C        C      0.920566666667     0.583050000000     0.027666666667     0.054      
C        C      0.795333333333     0.957150000000     0.002900000000     0.106      
C        C      0.729966666667     0.642550000000     0.183400000000    -0.028      
C        C      0.754900000000     0.635400000000     0.158833333333    -0.074      
C        C      0.974066666667     0.782950000000     0.306766666667     0.012      
C        C      0.750000000000     0.938050000000     0.173000000000     0.102      
C        C      0.892166666667     0.513650000000     0.044466666667     0.43       
N        N      0.896100000000     0.529350000000     0.137633333333    -0.225      
N        N      0.729433333333     0.720650000000     0.029033333333    -0.225      
N        N      0.962266666667     0.821550000000     0.144933333333    -0.237      
N        N      0.795600000000     0.928450000000     0.021733333333    -0.236      
N        N      0.704400000000     0.678450000000     0.188400000000    -0.237      
N        N      0.871066666667     0.571550000000     0.311600000000    -0.236      
N        N      0.770566666667     0.970650000000     0.195700000000    -0.225      
N        N      0.937233333333     0.779350000000     0.304300000000    -0.225      
O        O      0.751200000000     0.828250000000     0.038766666667    -0.438      
O        O      0.867500000000     0.981900000000     0.035400000000    -0.431      
O        O      0.698766666667     0.618450000000     0.224066666667    -0.419      
O        O      0.755633333333     0.982550000000     0.264766666667    -0.45       
O        O      0.759233333333     0.832350000000     0.104600000000    -0.493      
O        O      0.740766666667     0.582350000000     0.271266666667    -0.494      
O        O      0.965833333333     0.731900000000     0.202066666667    -0.43       
O        O      0.915466666667     0.671750000000     0.294566666667    -0.438      
O        O      0.911033333333     0.517450000000     0.068566666667    -0.45       
O        O      0.804933333333     0.501000000000     0.107666666667    -0.28       
O        O      0.801233333333     0.868450000000     0.057400000000    -0.42       
O        O      0.799166666667     0.518100000000     0.297933333333    -0.431      
O        O      0.690166666667     0.790850000000     0.066466666667    -0.527      
O        O      0.922300000000     0.767450000000     0.235233333333    -0.45       
O        O      0.709800000000     0.872800000000     0.127200000000    -0.495      
O        O      0.861733333333     0.999000000000     0.225666666667    -0.28       
O        O      0.967900000000     0.881550000000     0.109266666667    -0.419      
O        O      0.809833333333     0.540850000000     0.233133333333    -0.527      
O        O      0.971600000000     0.749000000000     0.059000000000    -0.279      
O        O      0.907433333333     0.667650000000     0.228733333333    -0.493      
O        O      0.925900000000     0.917650000000     0.062066666667    -0.494      
O        O      0.976500000000     0.709150000000     0.266866666667    -0.527      
O        O      0.876466666667     0.877200000000     0.039466666667    -0.495      
O        O      0.695066666667     0.751000000000     0.274333333333    -0.279      
O        O      0.790200000000     0.622800000000     0.293866666667    -0.495      
O        O      0.700833333333     0.768100000000     0.131266666667    -0.43       
O        O      0.856833333333     0.959150000000     0.100200000000    -0.527      
O        O      0.865433333333     0.631550000000     0.275933333333    -0.42       
O        O      0.917866666667     0.921750000000     0.127900000000    -0.437      
O        O      0.956866666667     0.627200000000     0.206133333333    -0.495      
O        O      0.748800000000     0.578250000000     0.205433333333    -0.437      
O        O      0.744366666667     0.732550000000     0.098100000000    -0.45       
Zn       Zn     0.838500000000     0.922945000000     0.385970000000     1.222      
Zn       Zn     0.671833333333     0.827055000000     0.447363333333     1.222      
Zn       Zn     0.919366666667     0.719005000000     0.599696666667     1.225      
Zn       Zn     0.913966666667     0.969005000000     0.433030000000     1.225      
Zn       Zn     0.752700000000     0.530995000000     0.566970000000     1.225      
Zn       Zn     0.747300000000     0.780995000000     0.400303333333     1.225      
Zn       Zn     0.994833333333     0.672945000000     0.552636666667     1.222      
Zn       Zn     0.828166666667     0.577055000000     0.614030000000     1.222      
H        H      0.982800000000     0.872350000000     0.369133333333     0.022      
H        H      0.848600000000     0.932900000000     0.501133333333     0.081      
H        H      0.891300000000     0.809900000000     0.659400000000    -0.008      
H        H      0.942033333333     0.559900000000     0.492733333333    -0.007      
H        H      0.729000000000     0.913500000000     0.622466666667     0.026      
H        H      0.816133333333     0.877650000000     0.464200000000     0.024      
H        H      0.771966666667     0.610300000000     0.488866666667     0.071      
H        H      0.978800000000     0.767400000000     0.492933333333     0.005      
H        H      0.683866666667     0.627650000000     0.630866666667     0.022      
H        H      0.894700000000     0.889700000000     0.511133333333     0.071      
H        H      0.850533333333     0.622350000000     0.535800000000     0.024      
H        H      0.728033333333     0.860300000000     0.655533333333     0.069      
H        H      0.938633333333     0.639700000000     0.344466666667     0.069      
H        H      0.937666666667     0.586500000000     0.377533333333     0.026      
H        H      0.681933333333     0.817100000000     0.665533333333     0.085      
H        H      0.687866666667     0.732600000000     0.507066666667     0.005      
H        H      0.771000000000     0.663500000000     0.455800000000     0.024      
H        H      0.984733333333     0.682900000000     0.334466666667     0.085      
H        H      0.818066666667     0.567100000000     0.498866666667     0.081      
H        H      0.812133333333     0.982600000000     0.340400000000     0.006      
H        H      0.724633333333     0.940100000000     0.507266666667    -0.007      
H        H      0.895666666667     0.836500000000     0.544200000000     0.024      
H        H      0.854533333333     0.517400000000     0.659600000000     0.006      
H        H      0.775366666667     0.690100000000     0.340600000000    -0.008      
C        C      0.823200000000     0.933450000000     0.502500000000    -0.097      
C        C      0.862400000000     0.599150000000     0.519600000000     0.074      
C        C      0.941166666667     0.763650000000     0.544466666667     0.429      
C        C      0.916666666667     0.561950000000     0.493666666667     0.102      
C        C      0.676800000000     0.683450000000     0.335833333333    -0.106      
C        C      0.692600000000     0.717050000000     0.359900000000     0.012      
C        C      0.916666666667     0.811950000000     0.660333333333     0.103      
C        C      0.895033333333     0.547150000000     0.356633333333    -0.158      
C        C      0.921566666667     0.614600000000     0.341166666667    -0.068      
C        C      0.871333333333     0.542850000000     0.663766666667     0.106      
C        C      0.807400000000     0.967050000000     0.526566666667     0.01       
C        C      0.911766666667     0.864600000000     0.507833333333    -0.074      
C        C      0.912766666667     0.833050000000     0.527666666667     0.058      
C        C      0.774500000000     0.986350000000     0.622200000000     0.43       
C        C      0.725500000000     0.736350000000     0.455533333333     0.429      
C        C      0.900333333333     0.597450000000     0.517733333333    -0.159      
C        C      0.750000000000     0.688050000000     0.339666666667     0.103      
C        C      0.744500000000     0.865900000000     0.458566666667     0.438      
C        C      0.771633333333     0.952850000000     0.643366666667    -0.158      
C        C      0.746100000000     0.916950000000     0.639000000000     0.054      
C        C      0.804266666667     0.900850000000     0.480400000000     0.074      
C        C      0.837766666667     0.995500000000     0.447700000000     0.295      
C        C      0.755500000000     0.615900000000     0.625233333333     0.439      
C        C      0.922166666667     0.634100000000     0.541433333333     0.438      
C        C      0.893200000000     0.639800000000     0.627700000000     0.354      
C        C      0.753900000000     0.666950000000     0.472333333333     0.058      
C        C      0.896633333333     0.607450000000     0.649933333333    -0.032      
C        C      0.733666666667     0.652550000000     0.648933333333    -0.161      
C        C      0.859266666667     0.532950000000     0.473433333333     0.01       
C        C      0.770033333333     0.892550000000     0.350066666667    -0.032      
C        C      0.995566666667     0.745500000000     0.614366666667     0.294      
C        C      0.938300000000     0.797150000000     0.523300000000    -0.163      
C        C      0.726533333333     0.610200000000     0.538966666667     0.353      
C        C      0.911166666667     0.884100000000     0.374766666667     0.439      
C        C      0.936700000000     0.857450000000     0.483266666667    -0.028      
C        C      0.933000000000     0.847450000000     0.351066666667    -0.161      
C        C      0.970933333333     0.849150000000     0.352933333333     0.08       
C        C      0.766333333333     0.902550000000     0.482266666667    -0.159      
C        C      0.962000000000     0.792850000000     0.497100000000     0.111      
C        C      0.695733333333     0.650850000000     0.647066666667     0.08       
C        C      0.989866666667     0.816550000000     0.664166666667    -0.106      
C        C      0.745100000000     0.885400000000     0.658833333333    -0.068      
C        C      0.940133333333     0.889800000000     0.461033333333     0.353      
C        C      0.828900000000     0.504500000000     0.552300000000     0.295      
C        C      0.671100000000     0.754500000000     0.385633333333     0.294      
C        C      0.704666666667     0.707150000000     0.502900000000     0.111      
C        C      0.843466666667     0.566550000000     0.497500000000    -0.097      
C        C      0.728366666667     0.702850000000     0.476700000000    -0.163      
C        C      0.773466666667     0.860200000000     0.372300000000     0.354      
C        C      0.920566666667     0.583050000000     0.361000000000     0.054      
C        C      0.795333333333     0.957150000000     0.336233333333     0.106      
C        C      0.729966666667     0.642550000000     0.516733333333    -0.028      
C        C      0.754900000000     0.635400000000     0.492166666667    -0.074      
C        C      0.974066666667     0.782950000000     0.640100000000     0.012      
C        C      0.750000000000     0.938050000000     0.506333333333     0.102      
C        C      0.892166666667     0.513650000000     0.377800000000     0.43       
N        N      0.896100000000     0.529350000000     0.470966666667    -0.225      
N        N      0.729433333333     0.720650000000     0.362366666667    -0.225      
N        N      0.962266666667     0.821550000000     0.478266666667    -0.237      
N        N      0.795600000000     0.928450000000     0.355066666667    -0.236      
N        N      0.704400000000     0.678450000000     0.521733333333    -0.237      
N        N      0.871066666667     0.571550000000     0.644933333333    -0.236      
N        N      0.770566666667     0.970650000000     0.529033333333    -0.225      
N        N      0.937233333333     0.779350000000     0.637633333333    -0.225      
O        O      0.751200000000     0.828250000000     0.372100000000    -0.438      
O        O      0.867500000000     0.981900000000     0.368733333333    -0.431      
O        O      0.698766666667     0.618450000000     0.557400000000    -0.419      
O        O      0.755633333333     0.982550000000     0.598100000000    -0.45       
O        O      0.759233333333     0.832350000000     0.437933333333    -0.493      
O        O      0.740766666667     0.582350000000     0.604600000000    -0.494      
O        O      0.965833333333     0.731900000000     0.535400000000    -0.43       
O        O      0.915466666667     0.671750000000     0.627900000000    -0.438      
O        O      0.911033333333     0.517450000000     0.401900000000    -0.45       
O        O      0.804933333333     0.501000000000     0.441000000000    -0.28       
O        O      0.801233333333     0.868450000000     0.390733333333    -0.42       
O        O      0.799166666667     0.518100000000     0.631266666667    -0.431      
O        O      0.690166666667     0.790850000000     0.399800000000    -0.527      
O        O      0.922300000000     0.767450000000     0.568566666667    -0.45       
O        O      0.709800000000     0.872800000000     0.460533333333    -0.495      
O        O      0.861733333333     0.999000000000     0.559000000000    -0.28       
O        O      0.967900000000     0.881550000000     0.442600000000    -0.419      
O        O      0.809833333333     0.540850000000     0.566466666667    -0.527      
O        O      0.971600000000     0.749000000000     0.392333333333    -0.279      
O        O      0.907433333333     0.667650000000     0.562066666667    -0.493      
O        O      0.925900000000     0.917650000000     0.395400000000    -0.494      
O        O      0.976500000000     0.709150000000     0.600200000000    -0.527      
O        O      0.876466666667     0.877200000000     0.372800000000    -0.495      
O        O      0.695066666667     0.751000000000     0.607666666667    -0.279      
O        O      0.790200000000     0.622800000000     0.627200000000    -0.495      
O        O      0.700833333333     0.768100000000     0.464600000000    -0.43       
O        O      0.856833333333     0.959150000000     0.433533333333    -0.527      
O        O      0.865433333333     0.631550000000     0.609266666667    -0.42       
O        O      0.917866666667     0.921750000000     0.461233333333    -0.437      
O        O      0.956866666667     0.627200000000     0.539466666667    -0.495      
O        O      0.748800000000     0.578250000000     0.538766666667    -0.437      
O        O      0.744366666667     0.732550000000     0.431433333333    -0.45       
Zn       Zn     0.838500000000     0.922945000000     0.719303333333     1.222      
Zn       Zn     0.671833333333     0.827055000000     0.780696666667     1.222      
Zn       Zn     0.919366666667     0.719005000000     0.933030000000     1.225      
Zn       Zn     0.913966666667     0.969005000000     0.766363333333     1.225      
Zn       Zn     0.752700000000     0.530995000000     0.900303333333     1.225      
Zn       Zn     0.747300000000     0.780995000000     0.733636666667     1.225      
Zn       Zn     0.994833333333     0.672945000000     0.885970000000     1.222      
Zn       Zn     0.828166666667     0.577055000000     0.947363333333     1.222      
H        H      0.982800000000     0.872350000000     0.702466666667     0.022      
H        H      0.848600000000     0.932900000000     0.834466666667     0.081      
H        H      0.891300000000     0.809900000000     0.992733333333    -0.008      
H        H      0.942033333333     0.559900000000     0.826066666667    -0.007      
H        H      0.729000000000     0.913500000000     0.955800000000     0.026      
H        H      0.816133333333     0.877650000000     0.797533333333     0.024      
H        H      0.771966666667     0.610300000000     0.822200000000     0.071      
H        H      0.978800000000     0.767400000000     0.826266666667     0.005      
H        H      0.683866666667     0.627650000000     0.964200000000     0.022      
H        H      0.894700000000     0.889700000000     0.844466666667     0.071      
H        H      0.850533333333     0.622350000000     0.869133333333     0.024      
H        H      0.728033333333     0.860300000000     0.988866666667     0.069      
H        H      0.938633333333     0.639700000000     0.677800000000     0.069      
H        H      0.937666666667     0.586500000000     0.710866666667     0.026      
H        H      0.681933333333     0.817100000000     0.998866666667     0.085      
H        H      0.687866666667     0.732600000000     0.840400000000     0.005      
H        H      0.771000000000     0.663500000000     0.789133333333     0.024      
H        H      0.984733333333     0.682900000000     0.667800000000     0.085      
H        H      0.818066666667     0.567100000000     0.832200000000     0.081      
H        H      0.812133333333     0.982600000000     0.673733333333     0.006      
H        H      0.724633333333     0.940100000000     0.840600000000    -0.007      
H        H      0.895666666667     0.836500000000     0.877533333333     0.024      
H        H      0.854533333333     0.517400000000     0.992933333333     0.006      
H        H      0.775366666667     0.690100000000     0.673933333333    -0.008      
C        C      0.823200000000     0.933450000000     0.835833333333    -0.097      
C        C      0.862400000000     0.599150000000     0.852933333333     0.074      
C        C      0.941166666667     0.763650000000     0.877800000000     0.429      
C        C      0.916666666667     0.561950000000     0.827000000000     0.102      
C        C      0.676800000000     0.683450000000     0.669166666667    -0.106      
C        C      0.692600000000     0.717050000000     0.693233333333     0.012      
C        C      0.916666666667     0.811950000000     0.993666666667     0.103      
C        C      0.895033333333     0.547150000000     0.689966666667    -0.158      
C        C      0.921566666667     0.614600000000     0.674500000000    -0.068      
C        C      0.871333333333     0.542850000000     0.997100000000     0.106      
C        C      0.807400000000     0.967050000000     0.859900000000     0.01       
C        C      0.911766666667     0.864600000000     0.841166666667    -0.074      
C        C      0.912766666667     0.833050000000     0.861000000000     0.058      
C        C      0.774500000000     0.986350000000     0.955533333333     0.43       
C        C      0.725500000000     0.736350000000     0.788866666667     0.429      
C        C      0.900333333333     0.597450000000     0.851066666667    -0.159      
C        C      0.750000000000     0.688050000000     0.673000000000     0.103      
C        C      0.744500000000     0.865900000000     0.791900000000     0.438      
C        C      0.771633333333     0.952850000000     0.976700000000    -0.158      
C        C      0.746100000000     0.916950000000     0.972333333333     0.054      
C        C      0.804266666667     0.900850000000     0.813733333333     0.074      
C        C      0.837766666667     0.995500000000     0.781033333333     0.295      
C        C      0.755500000000     0.615900000000     0.958566666667     0.439      
C        C      0.922166666667     0.634100000000     0.874766666667     0.438      
C        C      0.893200000000     0.639800000000     0.961033333333     0.354      
C        C      0.753900000000     0.666950000000     0.805666666667     0.058      
C        C      0.896633333333     0.607450000000     0.983266666667    -0.032      
C        C      0.733666666667     0.652550000000     0.982266666667    -0.161      
C        C      0.859266666667     0.532950000000     0.806766666667     0.01       
C        C      0.770033333333     0.892550000000     0.683400000000    -0.032      
C        C      0.995566666667     0.745500000000     0.947700000000     0.294      
C        C      0.938300000000     0.797150000000     0.856633333333    -0.163      
C        C      0.726533333333     0.610200000000     0.872300000000     0.353      
C        C      0.911166666667     0.884100000000     0.708100000000     0.439      
C        C      0.936700000000     0.857450000000     0.816600000000    -0.028      
C        C      0.933000000000     0.847450000000     0.684400000000    -0.161      
C        C      0.970933333333     0.849150000000     0.686266666667     0.08       
C        C      0.766333333333     0.902550000000     0.815600000000    -0.159      
C        C      0.962000000000     0.792850000000     0.830433333333     0.111      
C        C      0.695733333333     0.650850000000     0.980400000000     0.08       
C        C      0.989866666667     0.816550000000     0.997500000000    -0.106      
C        C      0.745100000000     0.885400000000     0.992166666667    -0.068      
C        C      0.940133333333     0.889800000000     0.794366666667     0.353      
C        C      0.828900000000     0.504500000000     0.885633333333     0.295      
C        C      0.671100000000     0.754500000000     0.718966666667     0.294      
C        C      0.704666666667     0.707150000000     0.836233333333     0.111      
C        C      0.843466666667     0.566550000000     0.830833333333    -0.097      
C        C      0.728366666667     0.702850000000     0.810033333333    -0.163      
C        C      0.773466666667     0.860200000000     0.705633333333     0.354      
C        C      0.920566666667     0.583050000000     0.694333333333     0.054      
C        C      0.795333333333     0.957150000000     0.669566666667     0.106      
C        C      0.729966666667     0.642550000000     0.850066666667    -0.028      
C        C      0.754900000000     0.635400000000     0.825500000000    -0.074      
C        C      0.974066666667     0.782950000000     0.973433333333     0.012      
C        C      0.750000000000     0.938050000000     0.839666666667     0.102      
C        C      0.892166666667     0.513650000000     0.711133333333     0.43       
N        N      0.896100000000     0.529350000000     0.804300000000    -0.225      
N        N      0.729433333333     0.720650000000     0.695700000000    -0.225      
N        N      0.962266666667     0.821550000000     0.811600000000    -0.237      
N        N      0.795600000000     0.928450000000     0.688400000000    -0.236      
N        N      0.704400000000     0.678450000000     0.855066666667    -0.237      
N        N      0.871066666667     0.571550000000     0.978266666667    -0.236      
N        N      0.770566666667     0.970650000000     0.862366666667    -0.225      
N        N      0.937233333333     0.779350000000     0.970966666667    -0.225      
O        O      0.751200000000     0.828250000000     0.705433333333    -0.438      
O        O      0.867500000000     0.981900000000     0.702066666667    -0.431      
O        O      0.698766666667     0.618450000000     0.890733333333    -0.419      
O        O      0.755633333333     0.982550000000     0.931433333333    -0.45       
O        O      0.759233333333     0.832350000000     0.771266666667    -0.493      
O        O      0.740766666667     0.582350000000     0.937933333333    -0.494      
O        O      0.965833333333     0.731900000000     0.868733333333    -0.43       
O        O      0.915466666667     0.671750000000     0.961233333333    -0.438      
O        O      0.911033333333     0.517450000000     0.735233333333    -0.45       
O        O      0.804933333333     0.501000000000     0.774333333333    -0.28       
O        O      0.801233333333     0.868450000000     0.724066666667    -0.42       
O        O      0.799166666667     0.518100000000     0.964600000000    -0.431      
O        O      0.690166666667     0.790850000000     0.733133333333    -0.527      
O        O      0.922300000000     0.767450000000     0.901900000000    -0.45       
O        O      0.709800000000     0.872800000000     0.793866666667    -0.495      
O        O      0.861733333333     0.999000000000     0.892333333333    -0.28       
O        O      0.967900000000     0.881550000000     0.775933333333    -0.419      
O        O      0.809833333333     0.540850000000     0.899800000000    -0.527      
O        O      0.971600000000     0.749000000000     0.725666666667    -0.279      
O        O      0.907433333333     0.667650000000     0.895400000000    -0.493      
O        O      0.925900000000     0.917650000000     0.728733333333    -0.494      
O        O      0.976500000000     0.709150000000     0.933533333333    -0.527      
O        O      0.876466666667     0.877200000000     0.706133333333    -0.495      
O        O      0.695066666667     0.751000000000     0.941000000000    -0.279      
O        O      0.790200000000     0.622800000000     0.960533333333    -0.495      
O        O      0.700833333333     0.768100000000     0.797933333333    -0.43       
O        O      0.856833333333     0.959150000000     0.766866666667    -0.527      
O        O      0.865433333333     0.631550000000     0.942600000000    -0.42       
O        O      0.917866666667     0.921750000000     0.794566666667    -0.437      
O        O      0.956866666667     0.627200000000     0.872800000000    -0.495      
O        O      0.748800000000     0.578250000000     0.872100000000    -0.437      
O        O      0.744366666667     0.732550000000     0.764766666667    -0.45       


