data_FORKUU_clean_DDEC

_audit_creation_method RASPA-1.0
_audit_creation_date 2025-9-8
_audit_author_name ''

_cell_length_a    39.478
_cell_length_b    39.478
_cell_length_c    29.9072
_cell_angle_alpha 90
_cell_angle_beta  90
_cell_angle_gamma 90
_cell_volume      46610.7

_symmetry_cell_setting          triclinic
_symmetry_space_group_name_Hall 'P 1'
_symmetry_space_group_name_H-M  'P 1'
_symmetry_Int_Tables_number     1

_symmetry_equiv_pos_as_xyz 'x,y,z'

loop_
_atom_site_label
_atom_site_type_symbol
_atom_site_fract_x
_atom_site_fract_y
_atom_site_fract_z
_atom_site_charge
C1       C      0.392950000000     0.000000000000     0.038200000000    -0.208381   
C2       C      0.107050000000     0.000000000000     0.211800000000    -0.208381   
C3       C      0.177300000000     0.468750000000     0.000000000000     0.439626   
C4       C      0.214850000000     0.468600000000     0.000000000000    -0.054292   
C5       C      0.232100000000     0.439450000000     0.000000000000    -0.071706   
C6       C      0.427750000000     0.000000000000     0.036550000000     0.131843   
C7       C      0.031250000000     0.177300000000     0.000000000000     0.439625   
C8       C      0.031400000000     0.214850000000     0.000000000000    -0.054292   
C9       C      0.060550000000     0.232100000000     0.000000000000    -0.071706   
C10      C      0.000000000000     0.392950000000     0.211800000000    -0.208385   
C11      C      0.468750000000     0.322700000000     0.000000000000     0.439626   
C12      C      0.468600000000     0.285150000000     0.000000000000    -0.054292   
C13      C      0.439450000000     0.267900000000     0.000000000000    -0.071702   
C14      C      0.267900000000     0.060550000000     0.000000000000    -0.071735   
C15      C      0.000000000000     0.392950000000     0.038200000000    -0.208385   
C16      C      0.124550000000     0.000000000000     0.000000000000     0.25355    
C17      C      0.232150000000     0.000000000000     0.000000000000     0.016889   
C18      C      0.000000000000     0.107050000000     0.211800000000    -0.208381   
C19      C      0.375450000000     0.000000000000     0.000000000000     0.25355    
C20      C      0.267850000000     0.000000000000     0.000000000000     0.016885   
C21      C      0.000000000000     0.072250000000     0.213450000000     0.131843   
C22      C      0.000000000000     0.124550000000     0.000000000000     0.25355    
C23      C      0.000000000000     0.232150000000     0.000000000000     0.016885   
C24      C      0.392950000000     0.000000000000     0.211800000000    -0.208353   
C25      C      0.000000000000     0.375450000000     0.000000000000     0.253579   
C26      C      0.000000000000     0.267850000000     0.000000000000     0.016889   
C27      C      0.072250000000     0.000000000000     0.213450000000     0.131843   
C28      C      0.000000000000     0.427750000000     0.213450000000     0.131843   
C29      C      0.285150000000     0.031400000000     0.000000000000    -0.054262   
C30      C      0.427750000000     0.000000000000     0.213450000000     0.131839   
C31      C      0.072250000000     0.000000000000     0.036550000000     0.131839   
C32      C      0.177300000000     0.031250000000     0.000000000000     0.439625   
C33      C      0.214850000000     0.031400000000     0.000000000000    -0.054292   
C34      C      0.232100000000     0.060550000000     0.000000000000    -0.071703   
C35      C      0.000000000000     0.107050000000     0.038200000000    -0.208353   
C36      C      0.322700000000     0.031250000000     0.000000000000     0.439623   
C37      C      0.322700000000     0.468750000000     0.000000000000     0.439625   
C38      C      0.285150000000     0.468600000000     0.000000000000    -0.054292   
C39      C      0.267900000000     0.439450000000     0.000000000000    -0.071706   
C40      C      0.000000000000     0.427750000000     0.036550000000     0.131843   
C41      C      0.468750000000     0.177300000000     0.000000000000     0.439623   
C42      C      0.000000000000     0.072250000000     0.036550000000     0.131839   
C43      C      0.439450000000     0.232100000000     0.000000000000    -0.071735   
C44      C      0.107050000000     0.000000000000     0.038200000000    -0.208353   
C45      C      0.031250000000     0.322700000000     0.000000000000     0.439626   
C46      C      0.031400000000     0.285150000000     0.000000000000    -0.054292   
C47      C      0.060550000000     0.267900000000     0.000000000000    -0.071706   
C48      C      0.468600000000     0.214850000000     0.000000000000    -0.054262   
F1       F      0.029910000000     0.029910000000     0.125000000000    -0.555733   
F2       F      0.000000000000     0.000000000000     0.182125000000    -0.494221   
F3       F      0.000000000000     0.000000000000     0.067875000000    -0.494221   
F4       F      0.470090000000     0.470090000000     0.125000000000    -0.555733   
F5       F      0.470090000000     0.029910000000     0.125000000000    -0.555733   
F6       F      0.029910000000     0.470090000000     0.125000000000    -0.555733   
H1       H      0.381550000000     0.000000000000     0.183850000000     0.141524   
H2       H      0.000000000000     0.439750000000     0.064075000000     0.092371   
H3       H      0.439750000000     0.000000000000     0.185925000000     0.092371   
H4       H      0.000000000000     0.439750000000     0.185925000000     0.092371   
H5       H      0.000000000000     0.118450000000     0.183850000000     0.141526   
H6       H      0.000000000000     0.118450000000     0.066150000000     0.141524   
H7       H      0.000000000000     0.060250000000     0.064075000000     0.092371   
H8       H      0.000000000000     0.381550000000     0.183850000000     0.141526   
H9       H      0.118450000000     0.000000000000     0.066150000000     0.141524   
H10      H      0.439750000000     0.000000000000     0.064075000000     0.092371   
H11      H      0.381550000000     0.000000000000     0.066150000000     0.141526   
H12      H      0.060250000000     0.000000000000     0.064075000000     0.092371   
H13      H      0.000000000000     0.060250000000     0.185925000000     0.092371   
H14      H      0.418550000000     0.279800000000     0.000000000000     0.132348   
H15      H      0.000000000000     0.381550000000     0.066150000000     0.141526   
H16      H      0.060250000000     0.000000000000     0.185925000000     0.092371   
H17      H      0.081450000000     0.279800000000     0.000000000000     0.132348   
H18      H      0.279800000000     0.081450000000     0.000000000000     0.13235    
H19      H      0.118450000000     0.000000000000     0.183850000000     0.141526   
H20      H      0.220200000000     0.418550000000     0.000000000000     0.132348   
H21      H      0.220200000000     0.081450000000     0.000000000000     0.132348   
H22      H      0.081450000000     0.220200000000     0.000000000000     0.132348   
H23      H      0.279800000000     0.418550000000     0.000000000000     0.132348   
H24      H      0.418550000000     0.220200000000     0.000000000000     0.13235    
N1       N      0.161300000000     0.000000000000     0.000000000000    -0.228651   
N2       N      0.445200000000     0.000000000000     0.000000000000    -0.208672   
N3       N      0.338700000000     0.000000000000     0.000000000000    -0.228651   
N4       N      0.000000000000     0.054800000000     0.000000000000    -0.208672   
N5       N      0.000000000000     0.161300000000     0.000000000000    -0.228651   
N6       N      0.000000000000     0.445200000000     0.000000000000    -0.208673   
N7       N      0.000000000000     0.338700000000     0.000000000000    -0.228653   
N8       N      0.054800000000     0.000000000000     0.000000000000    -0.208672   
O1       O      0.339150000000     0.442550000000     0.000000000000    -0.430905   
O2       O      0.160850000000     0.057450000000     0.000000000000    -0.430905   
O3       O      0.160850000000     0.442550000000     0.000000000000    -0.430905   
O4       O      0.057450000000     0.339150000000     0.000000000000    -0.430905   
O5       O      0.339150000000     0.057450000000     0.000000000000    -0.430905   
O6       O      0.057450000000     0.160850000000     0.000000000000    -0.430905   
O7       O      0.442550000000     0.339150000000     0.000000000000    -0.430905   
O8       O      0.442550000000     0.160850000000     0.000000000000    -0.430905   
Si1      Si     0.000000000000     0.000000000000     0.125000000000     1.7752     
Zn1      Zn     0.000000000000     0.000000000000     0.000000000000     0.724192   
C1       C      0.392950000000     0.000000000000     0.288200000000    -0.208381   
C2       C      0.107050000000     0.000000000000     0.461800000000    -0.208381   
C3       C      0.177300000000     0.468750000000     0.250000000000     0.439626   
C4       C      0.214850000000     0.468600000000     0.250000000000    -0.054292   
C5       C      0.232100000000     0.439450000000     0.250000000000    -0.071706   
C6       C      0.427750000000     0.000000000000     0.286550000000     0.131843   
C7       C      0.031250000000     0.177300000000     0.250000000000     0.439625   
C8       C      0.031400000000     0.214850000000     0.250000000000    -0.054292   
C9       C      0.060550000000     0.232100000000     0.250000000000    -0.071706   
C10      C      0.000000000000     0.392950000000     0.461800000000    -0.208385   
C11      C      0.468750000000     0.322700000000     0.250000000000     0.439626   
C12      C      0.468600000000     0.285150000000     0.250000000000    -0.054292   
C13      C      0.439450000000     0.267900000000     0.250000000000    -0.071702   
C14      C      0.267900000000     0.060550000000     0.250000000000    -0.071735   
C15      C      0.000000000000     0.392950000000     0.288200000000    -0.208385   
C16      C      0.124550000000     0.000000000000     0.250000000000     0.25355    
C17      C      0.232150000000     0.000000000000     0.250000000000     0.016889   
C18      C      0.000000000000     0.107050000000     0.461800000000    -0.208381   
C19      C      0.375450000000     0.000000000000     0.250000000000     0.25355    
C20      C      0.267850000000     0.000000000000     0.250000000000     0.016885   
C21      C      0.000000000000     0.072250000000     0.463450000000     0.131843   
C22      C      0.000000000000     0.124550000000     0.250000000000     0.25355    
C23      C      0.000000000000     0.232150000000     0.250000000000     0.016885   
C24      C      0.392950000000     0.000000000000     0.461800000000    -0.208353   
C25      C      0.000000000000     0.375450000000     0.250000000000     0.253579   
C26      C      0.000000000000     0.267850000000     0.250000000000     0.016889   
C27      C      0.072250000000     0.000000000000     0.463450000000     0.131843   
C28      C      0.000000000000     0.427750000000     0.463450000000     0.131843   
C29      C      0.285150000000     0.031400000000     0.250000000000    -0.054262   
C30      C      0.427750000000     0.000000000000     0.463450000000     0.131839   
C31      C      0.072250000000     0.000000000000     0.286550000000     0.131839   
C32      C      0.177300000000     0.031250000000     0.250000000000     0.439625   
C33      C      0.214850000000     0.031400000000     0.250000000000    -0.054292   
C34      C      0.232100000000     0.060550000000     0.250000000000    -0.071703   
C35      C      0.000000000000     0.107050000000     0.288200000000    -0.208353   
C36      C      0.322700000000     0.031250000000     0.250000000000     0.439623   
C37      C      0.322700000000     0.468750000000     0.250000000000     0.439625   
C38      C      0.285150000000     0.468600000000     0.250000000000    -0.054292   
C39      C      0.267900000000     0.439450000000     0.250000000000    -0.071706   
C40      C      0.000000000000     0.427750000000     0.286550000000     0.131843   
C41      C      0.468750000000     0.177300000000     0.250000000000     0.439623   
C42      C      0.000000000000     0.072250000000     0.286550000000     0.131839   
C43      C      0.439450000000     0.232100000000     0.250000000000    -0.071735   
C44      C      0.107050000000     0.000000000000     0.288200000000    -0.208353   
C45      C      0.031250000000     0.322700000000     0.250000000000     0.439626   
C46      C      0.031400000000     0.285150000000     0.250000000000    -0.054292   
C47      C      0.060550000000     0.267900000000     0.250000000000    -0.071706   
C48      C      0.468600000000     0.214850000000     0.250000000000    -0.054262   
F1       F      0.029910000000     0.029910000000     0.375000000000    -0.555733   
F2       F      0.000000000000     0.000000000000     0.432125000000    -0.494221   
F3       F      0.000000000000     0.000000000000     0.317875000000    -0.494221   
F4       F      0.470090000000     0.470090000000     0.375000000000    -0.555733   
F5       F      0.470090000000     0.029910000000     0.375000000000    -0.555733   
F6       F      0.029910000000     0.470090000000     0.375000000000    -0.555733   
H1       H      0.381550000000     0.000000000000     0.433850000000     0.141524   
H2       H      0.000000000000     0.439750000000     0.314075000000     0.092371   
H3       H      0.439750000000     0.000000000000     0.435925000000     0.092371   
H4       H      0.000000000000     0.439750000000     0.435925000000     0.092371   
H5       H      0.000000000000     0.118450000000     0.433850000000     0.141526   
H6       H      0.000000000000     0.118450000000     0.316150000000     0.141524   
H7       H      0.000000000000     0.060250000000     0.314075000000     0.092371   
H8       H      0.000000000000     0.381550000000     0.433850000000     0.141526   
H9       H      0.118450000000     0.000000000000     0.316150000000     0.141524   
H10      H      0.439750000000     0.000000000000     0.314075000000     0.092371   
H11      H      0.381550000000     0.000000000000     0.316150000000     0.141526   
H12      H      0.060250000000     0.000000000000     0.314075000000     0.092371   
H13      H      0.000000000000     0.060250000000     0.435925000000     0.092371   
H14      H      0.418550000000     0.279800000000     0.250000000000     0.132348   
H15      H      0.000000000000     0.381550000000     0.316150000000     0.141526   
H16      H      0.060250000000     0.000000000000     0.435925000000     0.092371   
H17      H      0.081450000000     0.279800000000     0.250000000000     0.132348   
H18      H      0.279800000000     0.081450000000     0.250000000000     0.13235    
H19      H      0.118450000000     0.000000000000     0.433850000000     0.141526   
H20      H      0.220200000000     0.418550000000     0.250000000000     0.132348   
H21      H      0.220200000000     0.081450000000     0.250000000000     0.132348   
H22      H      0.081450000000     0.220200000000     0.250000000000     0.132348   
H23      H      0.279800000000     0.418550000000     0.250000000000     0.132348   
H24      H      0.418550000000     0.220200000000     0.250000000000     0.13235    
N1       N      0.161300000000     0.000000000000     0.250000000000    -0.228651   
N2       N      0.445200000000     0.000000000000     0.250000000000    -0.208672   
N3       N      0.338700000000     0.000000000000     0.250000000000    -0.228651   
N4       N      0.000000000000     0.054800000000     0.250000000000    -0.208672   
N5       N      0.000000000000     0.161300000000     0.250000000000    -0.228651   
N6       N      0.000000000000     0.445200000000     0.250000000000    -0.208673   
N7       N      0.000000000000     0.338700000000     0.250000000000    -0.228653   
N8       N      0.054800000000     0.000000000000     0.250000000000    -0.208672   
O1       O      0.339150000000     0.442550000000     0.250000000000    -0.430905   
O2       O      0.160850000000     0.057450000000     0.250000000000    -0.430905   
O3       O      0.160850000000     0.442550000000     0.250000000000    -0.430905   
O4       O      0.057450000000     0.339150000000     0.250000000000    -0.430905   
O5       O      0.339150000000     0.057450000000     0.250000000000    -0.430905   
O6       O      0.057450000000     0.160850000000     0.250000000000    -0.430905   
O7       O      0.442550000000     0.339150000000     0.250000000000    -0.430905   
O8       O      0.442550000000     0.160850000000     0.250000000000    -0.430905   
Si1      Si     0.000000000000     0.000000000000     0.375000000000     1.7752     
Zn1      Zn     0.000000000000     0.000000000000     0.250000000000     0.724192   
C1       C      0.392950000000     0.000000000000     0.538200000000    -0.208381   
C2       C      0.107050000000     0.000000000000     0.711800000000    -0.208381   
C3       C      0.177300000000     0.468750000000     0.500000000000     0.439626   
C4       C      0.214850000000     0.468600000000     0.500000000000    -0.054292   
C5       C      0.232100000000     0.439450000000     0.500000000000    -0.071706   
C6       C      0.427750000000     0.000000000000     0.536550000000     0.131843   
C7       C      0.031250000000     0.177300000000     0.500000000000     0.439625   
C8       C      0.031400000000     0.214850000000     0.500000000000    -0.054292   
C9       C      0.060550000000     0.232100000000     0.500000000000    -0.071706   
C10      C      0.000000000000     0.392950000000     0.711800000000    -0.208385   
C11      C      0.468750000000     0.322700000000     0.500000000000     0.439626   
C12      C      0.468600000000     0.285150000000     0.500000000000    -0.054292   
C13      C      0.439450000000     0.267900000000     0.500000000000    -0.071702   
C14      C      0.267900000000     0.060550000000     0.500000000000    -0.071735   
C15      C      0.000000000000     0.392950000000     0.538200000000    -0.208385   
C16      C      0.124550000000     0.000000000000     0.500000000000     0.25355    
C17      C      0.232150000000     0.000000000000     0.500000000000     0.016889   
C18      C      0.000000000000     0.107050000000     0.711800000000    -0.208381   
C19      C      0.375450000000     0.000000000000     0.500000000000     0.25355    
C20      C      0.267850000000     0.000000000000     0.500000000000     0.016885   
C21      C      0.000000000000     0.072250000000     0.713450000000     0.131843   
C22      C      0.000000000000     0.124550000000     0.500000000000     0.25355    
C23      C      0.000000000000     0.232150000000     0.500000000000     0.016885   
C24      C      0.392950000000     0.000000000000     0.711800000000    -0.208353   
C25      C      0.000000000000     0.375450000000     0.500000000000     0.253579   
C26      C      0.000000000000     0.267850000000     0.500000000000     0.016889   
C27      C      0.072250000000     0.000000000000     0.713450000000     0.131843   
C28      C      0.000000000000     0.427750000000     0.713450000000     0.131843   
C29      C      0.285150000000     0.031400000000     0.500000000000    -0.054262   
C30      C      0.427750000000     0.000000000000     0.713450000000     0.131839   
C31      C      0.072250000000     0.000000000000     0.536550000000     0.131839   
C32      C      0.177300000000     0.031250000000     0.500000000000     0.439625   
C33      C      0.214850000000     0.031400000000     0.500000000000    -0.054292   
C34      C      0.232100000000     0.060550000000     0.500000000000    -0.071703   
C35      C      0.000000000000     0.107050000000     0.538200000000    -0.208353   
C36      C      0.322700000000     0.031250000000     0.500000000000     0.439623   
C37      C      0.322700000000     0.468750000000     0.500000000000     0.439625   
C38      C      0.285150000000     0.468600000000     0.500000000000    -0.054292   
C39      C      0.267900000000     0.439450000000     0.500000000000    -0.071706   
C40      C      0.000000000000     0.427750000000     0.536550000000     0.131843   
C41      C      0.468750000000     0.177300000000     0.500000000000     0.439623   
C42      C      0.000000000000     0.072250000000     0.536550000000     0.131839   
C43      C      0.439450000000     0.232100000000     0.500000000000    -0.071735   
C44      C      0.107050000000     0.000000000000     0.538200000000    -0.208353   
C45      C      0.031250000000     0.322700000000     0.500000000000     0.439626   
C46      C      0.031400000000     0.285150000000     0.500000000000    -0.054292   
C47      C      0.060550000000     0.267900000000     0.500000000000    -0.071706   
C48      C      0.468600000000     0.214850000000     0.500000000000    -0.054262   
F1       F      0.029910000000     0.029910000000     0.625000000000    -0.555733   
F2       F      0.000000000000     0.000000000000     0.682125000000    -0.494221   
F3       F      0.000000000000     0.000000000000     0.567875000000    -0.494221   
F4       F      0.470090000000     0.470090000000     0.625000000000    -0.555733   
F5       F      0.470090000000     0.029910000000     0.625000000000    -0.555733   
F6       F      0.029910000000     0.470090000000     0.625000000000    -0.555733   
H1       H      0.381550000000     0.000000000000     0.683850000000     0.141524   
H2       H      0.000000000000     0.439750000000     0.564075000000     0.092371   
H3       H      0.439750000000     0.000000000000     0.685925000000     0.092371   
H4       H      0.000000000000     0.439750000000     0.685925000000     0.092371   
H5       H      0.000000000000     0.118450000000     0.683850000000     0.141526   
H6       H      0.000000000000     0.118450000000     0.566150000000     0.141524   
H7       H      0.000000000000     0.060250000000     0.564075000000     0.092371   
H8       H      0.000000000000     0.381550000000     0.683850000000     0.141526   
H9       H      0.118450000000     0.000000000000     0.566150000000     0.141524   
H10      H      0.439750000000     0.000000000000     0.564075000000     0.092371   
H11      H      0.381550000000     0.000000000000     0.566150000000     0.141526   
H12      H      0.060250000000     0.000000000000     0.564075000000     0.092371   
H13      H      0.000000000000     0.060250000000     0.685925000000     0.092371   
H14      H      0.418550000000     0.279800000000     0.500000000000     0.132348   
H15      H      0.000000000000     0.381550000000     0.566150000000     0.141526   
H16      H      0.060250000000     0.000000000000     0.685925000000     0.092371   
H17      H      0.081450000000     0.279800000000     0.500000000000     0.132348   
H18      H      0.279800000000     0.081450000000     0.500000000000     0.13235    
H19      H      0.118450000000     0.000000000000     0.683850000000     0.141526   
H20      H      0.220200000000     0.418550000000     0.500000000000     0.132348   
H21      H      0.220200000000     0.081450000000     0.500000000000     0.132348   
H22      H      0.081450000000     0.220200000000     0.500000000000     0.132348   
H23      H      0.279800000000     0.418550000000     0.500000000000     0.132348   
H24      H      0.418550000000     0.220200000000     0.500000000000     0.13235    
N1       N      0.161300000000     0.000000000000     0.500000000000    -0.228651   
N2       N      0.445200000000     0.000000000000     0.500000000000    -0.208672   
N3       N      0.338700000000     0.000000000000     0.500000000000    -0.228651   
N4       N      0.000000000000     0.054800000000     0.500000000000    -0.208672   
N5       N      0.000000000000     0.161300000000     0.500000000000    -0.228651   
N6       N      0.000000000000     0.445200000000     0.500000000000    -0.208673   
N7       N      0.000000000000     0.338700000000     0.500000000000    -0.228653   
N8       N      0.054800000000     0.000000000000     0.500000000000    -0.208672   
O1       O      0.339150000000     0.442550000000     0.500000000000    -0.430905   
O2       O      0.160850000000     0.057450000000     0.500000000000    -0.430905   
O3       O      0.160850000000     0.442550000000     0.500000000000    -0.430905   
O4       O      0.057450000000     0.339150000000     0.500000000000    -0.430905   
O5       O      0.339150000000     0.057450000000     0.500000000000    -0.430905   
O6       O      0.057450000000     0.160850000000     0.500000000000    -0.430905   
O7       O      0.442550000000     0.339150000000     0.500000000000    -0.430905   
O8       O      0.442550000000     0.160850000000     0.500000000000    -0.430905   
Si1      Si     0.000000000000     0.000000000000     0.625000000000     1.7752     
Zn1      Zn     0.000000000000     0.000000000000     0.500000000000     0.724192   
C1       C      0.392950000000     0.000000000000     0.788200000000    -0.208381   
C2       C      0.107050000000     0.000000000000     0.961800000000    -0.208381   
C3       C      0.177300000000     0.468750000000     0.750000000000     0.439626   
C4       C      0.214850000000     0.468600000000     0.750000000000    -0.054292   
C5       C      0.232100000000     0.439450000000     0.750000000000    -0.071706   
C6       C      0.427750000000     0.000000000000     0.786550000000     0.131843   
C7       C      0.031250000000     0.177300000000     0.750000000000     0.439625   
C8       C      0.031400000000     0.214850000000     0.750000000000    -0.054292   
C9       C      0.060550000000     0.232100000000     0.750000000000    -0.071706   
C10      C      0.000000000000     0.392950000000     0.961800000000    -0.208385   
C11      C      0.468750000000     0.322700000000     0.750000000000     0.439626   
C12      C      0.468600000000     0.285150000000     0.750000000000    -0.054292   
C13      C      0.439450000000     0.267900000000     0.750000000000    -0.071702   
C14      C      0.267900000000     0.060550000000     0.750000000000    -0.071735   
C15      C      0.000000000000     0.392950000000     0.788200000000    -0.208385   
C16      C      0.124550000000     0.000000000000     0.750000000000     0.25355    
C17      C      0.232150000000     0.000000000000     0.750000000000     0.016889   
C18      C      0.000000000000     0.107050000000     0.961800000000    -0.208381   
C19      C      0.375450000000     0.000000000000     0.750000000000     0.25355    
C20      C      0.267850000000     0.000000000000     0.750000000000     0.016885   
C21      C      0.000000000000     0.072250000000     0.963450000000     0.131843   
C22      C      0.000000000000     0.124550000000     0.750000000000     0.25355    
C23      C      0.000000000000     0.232150000000     0.750000000000     0.016885   
C24      C      0.392950000000     0.000000000000     0.961800000000    -0.208353   
C25      C      0.000000000000     0.375450000000     0.750000000000     0.253579   
C26      C      0.000000000000     0.267850000000     0.750000000000     0.016889   
C27      C      0.072250000000     0.000000000000     0.963450000000     0.131843   
C28      C      0.000000000000     0.427750000000     0.963450000000     0.131843   
C29      C      0.285150000000     0.031400000000     0.750000000000    -0.054262   
C30      C      0.427750000000     0.000000000000     0.963450000000     0.131839   
C31      C      0.072250000000     0.000000000000     0.786550000000     0.131839   
C32      C      0.177300000000     0.031250000000     0.750000000000     0.439625   
C33      C      0.214850000000     0.031400000000     0.750000000000    -0.054292   
C34      C      0.232100000000     0.060550000000     0.750000000000    -0.071703   
C35      C      0.000000000000     0.107050000000     0.788200000000    -0.208353   
C36      C      0.322700000000     0.031250000000     0.750000000000     0.439623   
C37      C      0.322700000000     0.468750000000     0.750000000000     0.439625   
C38      C      0.285150000000     0.468600000000     0.750000000000    -0.054292   
C39      C      0.267900000000     0.439450000000     0.750000000000    -0.071706   
C40      C      0.000000000000     0.427750000000     0.786550000000     0.131843   
C41      C      0.468750000000     0.177300000000     0.750000000000     0.439623   
C42      C      0.000000000000     0.072250000000     0.786550000000     0.131839   
C43      C      0.439450000000     0.232100000000     0.750000000000    -0.071735   
C44      C      0.107050000000     0.000000000000     0.788200000000    -0.208353   
C45      C      0.031250000000     0.322700000000     0.750000000000     0.439626   
C46      C      0.031400000000     0.285150000000     0.750000000000    -0.054292   
C47      C      0.060550000000     0.267900000000     0.750000000000    -0.071706   
C48      C      0.468600000000     0.214850000000     0.750000000000    -0.054262   
F1       F      0.029910000000     0.029910000000     0.875000000000    -0.555733   
F2       F      0.000000000000     0.000000000000     0.932125000000    -0.494221   
F3       F      0.000000000000     0.000000000000     0.817875000000    -0.494221   
F4       F      0.470090000000     0.470090000000     0.875000000000    -0.555733   
F5       F      0.470090000000     0.029910000000     0.875000000000    -0.555733   
F6       F      0.029910000000     0.470090000000     0.875000000000    -0.555733   
H1       H      0.381550000000     0.000000000000     0.933850000000     0.141524   
H2       H      0.000000000000     0.439750000000     0.814075000000     0.092371   
H3       H      0.439750000000     0.000000000000     0.935925000000     0.092371   
H4       H      0.000000000000     0.439750000000     0.935925000000     0.092371   
H5       H      0.000000000000     0.118450000000     0.933850000000     0.141526   
H6       H      0.000000000000     0.118450000000     0.816150000000     0.141524   
H7       H      0.000000000000     0.060250000000     0.814075000000     0.092371   
H8       H      0.000000000000     0.381550000000     0.933850000000     0.141526   
H9       H      0.118450000000     0.000000000000     0.816150000000     0.141524   
H10      H      0.439750000000     0.000000000000     0.814075000000     0.092371   
H11      H      0.381550000000     0.000000000000     0.816150000000     0.141526   
H12      H      0.060250000000     0.000000000000     0.814075000000     0.092371   
H13      H      0.000000000000     0.060250000000     0.935925000000     0.092371   
H14      H      0.418550000000     0.279800000000     0.750000000000     0.132348   
H15      H      0.000000000000     0.381550000000     0.816150000000     0.141526   
H16      H      0.060250000000     0.000000000000     0.935925000000     0.092371   
H17      H      0.081450000000     0.279800000000     0.750000000000     0.132348   
H18      H      0.279800000000     0.081450000000     0.750000000000     0.13235    
H19      H      0.118450000000     0.000000000000     0.933850000000     0.141526   
H20      H      0.220200000000     0.418550000000     0.750000000000     0.132348   
H21      H      0.220200000000     0.081450000000     0.750000000000     0.132348   
H22      H      0.081450000000     0.220200000000     0.750000000000     0.132348   
H23      H      0.279800000000     0.418550000000     0.750000000000     0.132348   
H24      H      0.418550000000     0.220200000000     0.750000000000     0.13235    
N1       N      0.161300000000     0.000000000000     0.750000000000    -0.228651   
N2       N      0.445200000000     0.000000000000     0.750000000000    -0.208672   
N3       N      0.338700000000     0.000000000000     0.750000000000    -0.228651   
N4       N      0.000000000000     0.054800000000     0.750000000000    -0.208672   
N5       N      0.000000000000     0.161300000000     0.750000000000    -0.228651   
N6       N      0.000000000000     0.445200000000     0.750000000000    -0.208673   
N7       N      0.000000000000     0.338700000000     0.750000000000    -0.228653   
N8       N      0.054800000000     0.000000000000     0.750000000000    -0.208672   
O1       O      0.339150000000     0.442550000000     0.750000000000    -0.430905   
O2       O      0.160850000000     0.057450000000     0.750000000000    -0.430905   
O3       O      0.160850000000     0.442550000000     0.750000000000    -0.430905   
O4       O      0.057450000000     0.339150000000     0.750000000000    -0.430905   
O5       O      0.339150000000     0.057450000000     0.750000000000    -0.430905   
O6       O      0.057450000000     0.160850000000     0.750000000000    -0.430905   
O7       O      0.442550000000     0.339150000000     0.750000000000    -0.430905   
O8       O      0.442550000000     0.160850000000     0.750000000000    -0.430905   
Si1      Si     0.000000000000     0.000000000000     0.875000000000     1.7752     
Zn1      Zn     0.000000000000     0.000000000000     0.750000000000     0.724192   
C1       C      0.392950000000     0.500000000000     0.038200000000    -0.208381   
C2       C      0.107050000000     0.500000000000     0.211800000000    -0.208381   
C3       C      0.177300000000     0.968750000000     0.000000000000     0.439626   
C4       C      0.214850000000     0.968600000000     0.000000000000    -0.054292   
C5       C      0.232100000000     0.939450000000     0.000000000000    -0.071706   
C6       C      0.427750000000     0.500000000000     0.036550000000     0.131843   
C7       C      0.031250000000     0.677300000000     0.000000000000     0.439625   
C8       C      0.031400000000     0.714850000000     0.000000000000    -0.054292   
C9       C      0.060550000000     0.732100000000     0.000000000000    -0.071706   
C10      C      0.000000000000     0.892950000000     0.211800000000    -0.208385   
C11      C      0.468750000000     0.822700000000     0.000000000000     0.439626   
C12      C      0.468600000000     0.785150000000     0.000000000000    -0.054292   
C13      C      0.439450000000     0.767900000000     0.000000000000    -0.071702   
C14      C      0.267900000000     0.560550000000     0.000000000000    -0.071735   
C15      C      0.000000000000     0.892950000000     0.038200000000    -0.208385   
C16      C      0.124550000000     0.500000000000     0.000000000000     0.25355    
C17      C      0.232150000000     0.500000000000     0.000000000000     0.016889   
C18      C      0.000000000000     0.607050000000     0.211800000000    -0.208381   
C19      C      0.375450000000     0.500000000000     0.000000000000     0.25355    
C20      C      0.267850000000     0.500000000000     0.000000000000     0.016885   
C21      C      0.000000000000     0.572250000000     0.213450000000     0.131843   
C22      C      0.000000000000     0.624550000000     0.000000000000     0.25355    
C23      C      0.000000000000     0.732150000000     0.000000000000     0.016885   
C24      C      0.392950000000     0.500000000000     0.211800000000    -0.208353   
C25      C      0.000000000000     0.875450000000     0.000000000000     0.253579   
C26      C      0.000000000000     0.767850000000     0.000000000000     0.016889   
C27      C      0.072250000000     0.500000000000     0.213450000000     0.131843   
C28      C      0.000000000000     0.927750000000     0.213450000000     0.131843   
C29      C      0.285150000000     0.531400000000     0.000000000000    -0.054262   
C30      C      0.427750000000     0.500000000000     0.213450000000     0.131839   
C31      C      0.072250000000     0.500000000000     0.036550000000     0.131839   
C32      C      0.177300000000     0.531250000000     0.000000000000     0.439625   
C33      C      0.214850000000     0.531400000000     0.000000000000    -0.054292   
C34      C      0.232100000000     0.560550000000     0.000000000000    -0.071703   
C35      C      0.000000000000     0.607050000000     0.038200000000    -0.208353   
C36      C      0.322700000000     0.531250000000     0.000000000000     0.439623   
C37      C      0.322700000000     0.968750000000     0.000000000000     0.439625   
C38      C      0.285150000000     0.968600000000     0.000000000000    -0.054292   
C39      C      0.267900000000     0.939450000000     0.000000000000    -0.071706   
C40      C      0.000000000000     0.927750000000     0.036550000000     0.131843   
C41      C      0.468750000000     0.677300000000     0.000000000000     0.439623   
C42      C      0.000000000000     0.572250000000     0.036550000000     0.131839   
C43      C      0.439450000000     0.732100000000     0.000000000000    -0.071735   
C44      C      0.107050000000     0.500000000000     0.038200000000    -0.208353   
C45      C      0.031250000000     0.822700000000     0.000000000000     0.439626   
C46      C      0.031400000000     0.785150000000     0.000000000000    -0.054292   
C47      C      0.060550000000     0.767900000000     0.000000000000    -0.071706   
C48      C      0.468600000000     0.714850000000     0.000000000000    -0.054262   
F1       F      0.029910000000     0.529910000000     0.125000000000    -0.555733   
F2       F      0.000000000000     0.500000000000     0.182125000000    -0.494221   
F3       F      0.000000000000     0.500000000000     0.067875000000    -0.494221   
F4       F      0.470090000000     0.970090000000     0.125000000000    -0.555733   
F5       F      0.470090000000     0.529910000000     0.125000000000    -0.555733   
F6       F      0.029910000000     0.970090000000     0.125000000000    -0.555733   
H1       H      0.381550000000     0.500000000000     0.183850000000     0.141524   
H2       H      0.000000000000     0.939750000000     0.064075000000     0.092371   
H3       H      0.439750000000     0.500000000000     0.185925000000     0.092371   
H4       H      0.000000000000     0.939750000000     0.185925000000     0.092371   
H5       H      0.000000000000     0.618450000000     0.183850000000     0.141526   
H6       H      0.000000000000     0.618450000000     0.066150000000     0.141524   
H7       H      0.000000000000     0.560250000000     0.064075000000     0.092371   
H8       H      0.000000000000     0.881550000000     0.183850000000     0.141526   
H9       H      0.118450000000     0.500000000000     0.066150000000     0.141524   
H10      H      0.439750000000     0.500000000000     0.064075000000     0.092371   
H11      H      0.381550000000     0.500000000000     0.066150000000     0.141526   
H12      H      0.060250000000     0.500000000000     0.064075000000     0.092371   
H13      H      0.000000000000     0.560250000000     0.185925000000     0.092371   
H14      H      0.418550000000     0.779800000000     0.000000000000     0.132348   
H15      H      0.000000000000     0.881550000000     0.066150000000     0.141526   
H16      H      0.060250000000     0.500000000000     0.185925000000     0.092371   
H17      H      0.081450000000     0.779800000000     0.000000000000     0.132348   
H18      H      0.279800000000     0.581450000000     0.000000000000     0.13235    
H19      H      0.118450000000     0.500000000000     0.183850000000     0.141526   
H20      H      0.220200000000     0.918550000000     0.000000000000     0.132348   
H21      H      0.220200000000     0.581450000000     0.000000000000     0.132348   
H22      H      0.081450000000     0.720200000000     0.000000000000     0.132348   
H23      H      0.279800000000     0.918550000000     0.000000000000     0.132348   
H24      H      0.418550000000     0.720200000000     0.000000000000     0.13235    
N1       N      0.161300000000     0.500000000000     0.000000000000    -0.228651   
N2       N      0.445200000000     0.500000000000     0.000000000000    -0.208672   
N3       N      0.338700000000     0.500000000000     0.000000000000    -0.228651   
N4       N      0.000000000000     0.554800000000     0.000000000000    -0.208672   
N5       N      0.000000000000     0.661300000000     0.000000000000    -0.228651   
N6       N      0.000000000000     0.945200000000     0.000000000000    -0.208673   
N7       N      0.000000000000     0.838700000000     0.000000000000    -0.228653   
N8       N      0.054800000000     0.500000000000     0.000000000000    -0.208672   
O1       O      0.339150000000     0.942550000000     0.000000000000    -0.430905   
O2       O      0.160850000000     0.557450000000     0.000000000000    -0.430905   
O3       O      0.160850000000     0.942550000000     0.000000000000    -0.430905   
O4       O      0.057450000000     0.839150000000     0.000000000000    -0.430905   
O5       O      0.339150000000     0.557450000000     0.000000000000    -0.430905   
O6       O      0.057450000000     0.660850000000     0.000000000000    -0.430905   
O7       O      0.442550000000     0.839150000000     0.000000000000    -0.430905   
O8       O      0.442550000000     0.660850000000     0.000000000000    -0.430905   
Si1      Si     0.000000000000     0.500000000000     0.125000000000     1.7752     
Zn1      Zn     0.000000000000     0.500000000000     0.000000000000     0.724192   
C1       C      0.392950000000     0.500000000000     0.288200000000    -0.208381   
C2       C      0.107050000000     0.500000000000     0.461800000000    -0.208381   
C3       C      0.177300000000     0.968750000000     0.250000000000     0.439626   
C4       C      0.214850000000     0.968600000000     0.250000000000    -0.054292   
C5       C      0.232100000000     0.939450000000     0.250000000000    -0.071706   
C6       C      0.427750000000     0.500000000000     0.286550000000     0.131843   
C7       C      0.031250000000     0.677300000000     0.250000000000     0.439625   
C8       C      0.031400000000     0.714850000000     0.250000000000    -0.054292   
C9       C      0.060550000000     0.732100000000     0.250000000000    -0.071706   
C10      C      0.000000000000     0.892950000000     0.461800000000    -0.208385   
C11      C      0.468750000000     0.822700000000     0.250000000000     0.439626   
C12      C      0.468600000000     0.785150000000     0.250000000000    -0.054292   
C13      C      0.439450000000     0.767900000000     0.250000000000    -0.071702   
C14      C      0.267900000000     0.560550000000     0.250000000000    -0.071735   
C15      C      0.000000000000     0.892950000000     0.288200000000    -0.208385   
C16      C      0.124550000000     0.500000000000     0.250000000000     0.25355    
C17      C      0.232150000000     0.500000000000     0.250000000000     0.016889   
C18      C      0.000000000000     0.607050000000     0.461800000000    -0.208381   
C19      C      0.375450000000     0.500000000000     0.250000000000     0.25355    
C20      C      0.267850000000     0.500000000000     0.250000000000     0.016885   
C21      C      0.000000000000     0.572250000000     0.463450000000     0.131843   
C22      C      0.000000000000     0.624550000000     0.250000000000     0.25355    
C23      C      0.000000000000     0.732150000000     0.250000000000     0.016885   
C24      C      0.392950000000     0.500000000000     0.461800000000    -0.208353   
C25      C      0.000000000000     0.875450000000     0.250000000000     0.253579   
C26      C      0.000000000000     0.767850000000     0.250000000000     0.016889   
C27      C      0.072250000000     0.500000000000     0.463450000000     0.131843   
C28      C      0.000000000000     0.927750000000     0.463450000000     0.131843   
C29      C      0.285150000000     0.531400000000     0.250000000000    -0.054262   
C30      C      0.427750000000     0.500000000000     0.463450000000     0.131839   
C31      C      0.072250000000     0.500000000000     0.286550000000     0.131839   
C32      C      0.177300000000     0.531250000000     0.250000000000     0.439625   
C33      C      0.214850000000     0.531400000000     0.250000000000    -0.054292   
C34      C      0.232100000000     0.560550000000     0.250000000000    -0.071703   
C35      C      0.000000000000     0.607050000000     0.288200000000    -0.208353   
C36      C      0.322700000000     0.531250000000     0.250000000000     0.439623   
C37      C      0.322700000000     0.968750000000     0.250000000000     0.439625   
C38      C      0.285150000000     0.968600000000     0.250000000000    -0.054292   
C39      C      0.267900000000     0.939450000000     0.250000000000    -0.071706   
C40      C      0.000000000000     0.927750000000     0.286550000000     0.131843   
C41      C      0.468750000000     0.677300000000     0.250000000000     0.439623   
C42      C      0.000000000000     0.572250000000     0.286550000000     0.131839   
C43      C      0.439450000000     0.732100000000     0.250000000000    -0.071735   
C44      C      0.107050000000     0.500000000000     0.288200000000    -0.208353   
C45      C      0.031250000000     0.822700000000     0.250000000000     0.439626   
C46      C      0.031400000000     0.785150000000     0.250000000000    -0.054292   
C47      C      0.060550000000     0.767900000000     0.250000000000    -0.071706   
C48      C      0.468600000000     0.714850000000     0.250000000000    -0.054262   
F1       F      0.029910000000     0.529910000000     0.375000000000    -0.555733   
F2       F      0.000000000000     0.500000000000     0.432125000000    -0.494221   
F3       F      0.000000000000     0.500000000000     0.317875000000    -0.494221   
F4       F      0.470090000000     0.970090000000     0.375000000000    -0.555733   
F5       F      0.470090000000     0.529910000000     0.375000000000    -0.555733   
F6       F      0.029910000000     0.970090000000     0.375000000000    -0.555733   
H1       H      0.381550000000     0.500000000000     0.433850000000     0.141524   
H2       H      0.000000000000     0.939750000000     0.314075000000     0.092371   
H3       H      0.439750000000     0.500000000000     0.435925000000     0.092371   
H4       H      0.000000000000     0.939750000000     0.435925000000     0.092371   
H5       H      0.000000000000     0.618450000000     0.433850000000     0.141526   
H6       H      0.000000000000     0.618450000000     0.316150000000     0.141524   
H7       H      0.000000000000     0.560250000000     0.314075000000     0.092371   
H8       H      0.000000000000     0.881550000000     0.433850000000     0.141526   
H9       H      0.118450000000     0.500000000000     0.316150000000     0.141524   
H10      H      0.439750000000     0.500000000000     0.314075000000     0.092371   
H11      H      0.381550000000     0.500000000000     0.316150000000     0.141526   
H12      H      0.060250000000     0.500000000000     0.314075000000     0.092371   
H13      H      0.000000000000     0.560250000000     0.435925000000     0.092371   
H14      H      0.418550000000     0.779800000000     0.250000000000     0.132348   
H15      H      0.000000000000     0.881550000000     0.316150000000     0.141526   
H16      H      0.060250000000     0.500000000000     0.435925000000     0.092371   
H17      H      0.081450000000     0.779800000000     0.250000000000     0.132348   
H18      H      0.279800000000     0.581450000000     0.250000000000     0.13235    
H19      H      0.118450000000     0.500000000000     0.433850000000     0.141526   
H20      H      0.220200000000     0.918550000000     0.250000000000     0.132348   
H21      H      0.220200000000     0.581450000000     0.250000000000     0.132348   
H22      H      0.081450000000     0.720200000000     0.250000000000     0.132348   
H23      H      0.279800000000     0.918550000000     0.250000000000     0.132348   
H24      H      0.418550000000     0.720200000000     0.250000000000     0.13235    
N1       N      0.161300000000     0.500000000000     0.250000000000    -0.228651   
N2       N      0.445200000000     0.500000000000     0.250000000000    -0.208672   
N3       N      0.338700000000     0.500000000000     0.250000000000    -0.228651   
N4       N      0.000000000000     0.554800000000     0.250000000000    -0.208672   
N5       N      0.000000000000     0.661300000000     0.250000000000    -0.228651   
N6       N      0.000000000000     0.945200000000     0.250000000000    -0.208673   
N7       N      0.000000000000     0.838700000000     0.250000000000    -0.228653   
N8       N      0.054800000000     0.500000000000     0.250000000000    -0.208672   
O1       O      0.339150000000     0.942550000000     0.250000000000    -0.430905   
O2       O      0.160850000000     0.557450000000     0.250000000000    -0.430905   
O3       O      0.160850000000     0.942550000000     0.250000000000    -0.430905   
O4       O      0.057450000000     0.839150000000     0.250000000000    -0.430905   
O5       O      0.339150000000     0.557450000000     0.250000000000    -0.430905   
O6       O      0.057450000000     0.660850000000     0.250000000000    -0.430905   
O7       O      0.442550000000     0.839150000000     0.250000000000    -0.430905   
O8       O      0.442550000000     0.660850000000     0.250000000000    -0.430905   
Si1      Si     0.000000000000     0.500000000000     0.375000000000     1.7752     
Zn1      Zn     0.000000000000     0.500000000000     0.250000000000     0.724192   
C1       C      0.392950000000     0.500000000000     0.538200000000    -0.208381   
C2       C      0.107050000000     0.500000000000     0.711800000000    -0.208381   
C3       C      0.177300000000     0.968750000000     0.500000000000     0.439626   
C4       C      0.214850000000     0.968600000000     0.500000000000    -0.054292   
C5       C      0.232100000000     0.939450000000     0.500000000000    -0.071706   
C6       C      0.427750000000     0.500000000000     0.536550000000     0.131843   
C7       C      0.031250000000     0.677300000000     0.500000000000     0.439625   
C8       C      0.031400000000     0.714850000000     0.500000000000    -0.054292   
C9       C      0.060550000000     0.732100000000     0.500000000000    -0.071706   
C10      C      0.000000000000     0.892950000000     0.711800000000    -0.208385   
C11      C      0.468750000000     0.822700000000     0.500000000000     0.439626   
C12      C      0.468600000000     0.785150000000     0.500000000000    -0.054292   
C13      C      0.439450000000     0.767900000000     0.500000000000    -0.071702   
C14      C      0.267900000000     0.560550000000     0.500000000000    -0.071735   
C15      C      0.000000000000     0.892950000000     0.538200000000    -0.208385   
C16      C      0.124550000000     0.500000000000     0.500000000000     0.25355    
C17      C      0.232150000000     0.500000000000     0.500000000000     0.016889   
C18      C      0.000000000000     0.607050000000     0.711800000000    -0.208381   
C19      C      0.375450000000     0.500000000000     0.500000000000     0.25355    
C20      C      0.267850000000     0.500000000000     0.500000000000     0.016885   
C21      C      0.000000000000     0.572250000000     0.713450000000     0.131843   
C22      C      0.000000000000     0.624550000000     0.500000000000     0.25355    
C23      C      0.000000000000     0.732150000000     0.500000000000     0.016885   
C24      C      0.392950000000     0.500000000000     0.711800000000    -0.208353   
C25      C      0.000000000000     0.875450000000     0.500000000000     0.253579   
C26      C      0.000000000000     0.767850000000     0.500000000000     0.016889   
C27      C      0.072250000000     0.500000000000     0.713450000000     0.131843   
C28      C      0.000000000000     0.927750000000     0.713450000000     0.131843   
C29      C      0.285150000000     0.531400000000     0.500000000000    -0.054262   
C30      C      0.427750000000     0.500000000000     0.713450000000     0.131839   
C31      C      0.072250000000     0.500000000000     0.536550000000     0.131839   
C32      C      0.177300000000     0.531250000000     0.500000000000     0.439625   
C33      C      0.214850000000     0.531400000000     0.500000000000    -0.054292   
C34      C      0.232100000000     0.560550000000     0.500000000000    -0.071703   
C35      C      0.000000000000     0.607050000000     0.538200000000    -0.208353   
C36      C      0.322700000000     0.531250000000     0.500000000000     0.439623   
C37      C      0.322700000000     0.968750000000     0.500000000000     0.439625   
C38      C      0.285150000000     0.968600000000     0.500000000000    -0.054292   
C39      C      0.267900000000     0.939450000000     0.500000000000    -0.071706   
C40      C      0.000000000000     0.927750000000     0.536550000000     0.131843   
C41      C      0.468750000000     0.677300000000     0.500000000000     0.439623   
C42      C      0.000000000000     0.572250000000     0.536550000000     0.131839   
C43      C      0.439450000000     0.732100000000     0.500000000000    -0.071735   
C44      C      0.107050000000     0.500000000000     0.538200000000    -0.208353   
C45      C      0.031250000000     0.822700000000     0.500000000000     0.439626   
C46      C      0.031400000000     0.785150000000     0.500000000000    -0.054292   
C47      C      0.060550000000     0.767900000000     0.500000000000    -0.071706   
C48      C      0.468600000000     0.714850000000     0.500000000000    -0.054262   
F1       F      0.029910000000     0.529910000000     0.625000000000    -0.555733   
F2       F      0.000000000000     0.500000000000     0.682125000000    -0.494221   
F3       F      0.000000000000     0.500000000000     0.567875000000    -0.494221   
F4       F      0.470090000000     0.970090000000     0.625000000000    -0.555733   
F5       F      0.470090000000     0.529910000000     0.625000000000    -0.555733   
F6       F      0.029910000000     0.970090000000     0.625000000000    -0.555733   
H1       H      0.381550000000     0.500000000000     0.683850000000     0.141524   
H2       H      0.000000000000     0.939750000000     0.564075000000     0.092371   
H3       H      0.439750000000     0.500000000000     0.685925000000     0.092371   
H4       H      0.000000000000     0.939750000000     0.685925000000     0.092371   
H5       H      0.000000000000     0.618450000000     0.683850000000     0.141526   
H6       H      0.000000000000     0.618450000000     0.566150000000     0.141524   
H7       H      0.000000000000     0.560250000000     0.564075000000     0.092371   
H8       H      0.000000000000     0.881550000000     0.683850000000     0.141526   
H9       H      0.118450000000     0.500000000000     0.566150000000     0.141524   
H10      H      0.439750000000     0.500000000000     0.564075000000     0.092371   
H11      H      0.381550000000     0.500000000000     0.566150000000     0.141526   
H12      H      0.060250000000     0.500000000000     0.564075000000     0.092371   
H13      H      0.000000000000     0.560250000000     0.685925000000     0.092371   
H14      H      0.418550000000     0.779800000000     0.500000000000     0.132348   
H15      H      0.000000000000     0.881550000000     0.566150000000     0.141526   
H16      H      0.060250000000     0.500000000000     0.685925000000     0.092371   
H17      H      0.081450000000     0.779800000000     0.500000000000     0.132348   
H18      H      0.279800000000     0.581450000000     0.500000000000     0.13235    
H19      H      0.118450000000     0.500000000000     0.683850000000     0.141526   
H20      H      0.220200000000     0.918550000000     0.500000000000     0.132348   
H21      H      0.220200000000     0.581450000000     0.500000000000     0.132348   
H22      H      0.081450000000     0.720200000000     0.500000000000     0.132348   
H23      H      0.279800000000     0.918550000000     0.500000000000     0.132348   
H24      H      0.418550000000     0.720200000000     0.500000000000     0.13235    
N1       N      0.161300000000     0.500000000000     0.500000000000    -0.228651   
N2       N      0.445200000000     0.500000000000     0.500000000000    -0.208672   
N3       N      0.338700000000     0.500000000000     0.500000000000    -0.228651   
N4       N      0.000000000000     0.554800000000     0.500000000000    -0.208672   
N5       N      0.000000000000     0.661300000000     0.500000000000    -0.228651   
N6       N      0.000000000000     0.945200000000     0.500000000000    -0.208673   
N7       N      0.000000000000     0.838700000000     0.500000000000    -0.228653   
N8       N      0.054800000000     0.500000000000     0.500000000000    -0.208672   
O1       O      0.339150000000     0.942550000000     0.500000000000    -0.430905   
O2       O      0.160850000000     0.557450000000     0.500000000000    -0.430905   
O3       O      0.160850000000     0.942550000000     0.500000000000    -0.430905   
O4       O      0.057450000000     0.839150000000     0.500000000000    -0.430905   
O5       O      0.339150000000     0.557450000000     0.500000000000    -0.430905   
O6       O      0.057450000000     0.660850000000     0.500000000000    -0.430905   
O7       O      0.442550000000     0.839150000000     0.500000000000    -0.430905   
O8       O      0.442550000000     0.660850000000     0.500000000000    -0.430905   
Si1      Si     0.000000000000     0.500000000000     0.625000000000     1.7752     
Zn1      Zn     0.000000000000     0.500000000000     0.500000000000     0.724192   
C1       C      0.392950000000     0.500000000000     0.788200000000    -0.208381   
C2       C      0.107050000000     0.500000000000     0.961800000000    -0.208381   
C3       C      0.177300000000     0.968750000000     0.750000000000     0.439626   
C4       C      0.214850000000     0.968600000000     0.750000000000    -0.054292   
C5       C      0.232100000000     0.939450000000     0.750000000000    -0.071706   
C6       C      0.427750000000     0.500000000000     0.786550000000     0.131843   
C7       C      0.031250000000     0.677300000000     0.750000000000     0.439625   
C8       C      0.031400000000     0.714850000000     0.750000000000    -0.054292   
C9       C      0.060550000000     0.732100000000     0.750000000000    -0.071706   
C10      C      0.000000000000     0.892950000000     0.961800000000    -0.208385   
C11      C      0.468750000000     0.822700000000     0.750000000000     0.439626   
C12      C      0.468600000000     0.785150000000     0.750000000000    -0.054292   
C13      C      0.439450000000     0.767900000000     0.750000000000    -0.071702   
C14      C      0.267900000000     0.560550000000     0.750000000000    -0.071735   
C15      C      0.000000000000     0.892950000000     0.788200000000    -0.208385   
C16      C      0.124550000000     0.500000000000     0.750000000000     0.25355    
C17      C      0.232150000000     0.500000000000     0.750000000000     0.016889   
C18      C      0.000000000000     0.607050000000     0.961800000000    -0.208381   
C19      C      0.375450000000     0.500000000000     0.750000000000     0.25355    
C20      C      0.267850000000     0.500000000000     0.750000000000     0.016885   
C21      C      0.000000000000     0.572250000000     0.963450000000     0.131843   
C22      C      0.000000000000     0.624550000000     0.750000000000     0.25355    
C23      C      0.000000000000     0.732150000000     0.750000000000     0.016885   
C24      C      0.392950000000     0.500000000000     0.961800000000    -0.208353   
C25      C      0.000000000000     0.875450000000     0.750000000000     0.253579   
C26      C      0.000000000000     0.767850000000     0.750000000000     0.016889   
C27      C      0.072250000000     0.500000000000     0.963450000000     0.131843   
C28      C      0.000000000000     0.927750000000     0.963450000000     0.131843   
C29      C      0.285150000000     0.531400000000     0.750000000000    -0.054262   
C30      C      0.427750000000     0.500000000000     0.963450000000     0.131839   
C31      C      0.072250000000     0.500000000000     0.786550000000     0.131839   
C32      C      0.177300000000     0.531250000000     0.750000000000     0.439625   
C33      C      0.214850000000     0.531400000000     0.750000000000    -0.054292   
C34      C      0.232100000000     0.560550000000     0.750000000000    -0.071703   
C35      C      0.000000000000     0.607050000000     0.788200000000    -0.208353   
C36      C      0.322700000000     0.531250000000     0.750000000000     0.439623   
C37      C      0.322700000000     0.968750000000     0.750000000000     0.439625   
C38      C      0.285150000000     0.968600000000     0.750000000000    -0.054292   
C39      C      0.267900000000     0.939450000000     0.750000000000    -0.071706   
C40      C      0.000000000000     0.927750000000     0.786550000000     0.131843   
C41      C      0.468750000000     0.677300000000     0.750000000000     0.439623   
C42      C      0.000000000000     0.572250000000     0.786550000000     0.131839   
C43      C      0.439450000000     0.732100000000     0.750000000000    -0.071735   
C44      C      0.107050000000     0.500000000000     0.788200000000    -0.208353   
C45      C      0.031250000000     0.822700000000     0.750000000000     0.439626   
C46      C      0.031400000000     0.785150000000     0.750000000000    -0.054292   
C47      C      0.060550000000     0.767900000000     0.750000000000    -0.071706   
C48      C      0.468600000000     0.714850000000     0.750000000000    -0.054262   
F1       F      0.029910000000     0.529910000000     0.875000000000    -0.555733   
F2       F      0.000000000000     0.500000000000     0.932125000000    -0.494221   
F3       F      0.000000000000     0.500000000000     0.817875000000    -0.494221   
F4       F      0.470090000000     0.970090000000     0.875000000000    -0.555733   
F5       F      0.470090000000     0.529910000000     0.875000000000    -0.555733   
F6       F      0.029910000000     0.970090000000     0.875000000000    -0.555733   
H1       H      0.381550000000     0.500000000000     0.933850000000     0.141524   
H2       H      0.000000000000     0.939750000000     0.814075000000     0.092371   
H3       H      0.439750000000     0.500000000000     0.935925000000     0.092371   
H4       H      0.000000000000     0.939750000000     0.935925000000     0.092371   
H5       H      0.000000000000     0.618450000000     0.933850000000     0.141526   
H6       H      0.000000000000     0.618450000000     0.816150000000     0.141524   
H7       H      0.000000000000     0.560250000000     0.814075000000     0.092371   
H8       H      0.000000000000     0.881550000000     0.933850000000     0.141526   
H9       H      0.118450000000     0.500000000000     0.816150000000     0.141524   
H10      H      0.439750000000     0.500000000000     0.814075000000     0.092371   
H11      H      0.381550000000     0.500000000000     0.816150000000     0.141526   
H12      H      0.060250000000     0.500000000000     0.814075000000     0.092371   
H13      H      0.000000000000     0.560250000000     0.935925000000     0.092371   
H14      H      0.418550000000     0.779800000000     0.750000000000     0.132348   
H15      H      0.000000000000     0.881550000000     0.816150000000     0.141526   
H16      H      0.060250000000     0.500000000000     0.935925000000     0.092371   
H17      H      0.081450000000     0.779800000000     0.750000000000     0.132348   
H18      H      0.279800000000     0.581450000000     0.750000000000     0.13235    
H19      H      0.118450000000     0.500000000000     0.933850000000     0.141526   
H20      H      0.220200000000     0.918550000000     0.750000000000     0.132348   
H21      H      0.220200000000     0.581450000000     0.750000000000     0.132348   
H22      H      0.081450000000     0.720200000000     0.750000000000     0.132348   
H23      H      0.279800000000     0.918550000000     0.750000000000     0.132348   
H24      H      0.418550000000     0.720200000000     0.750000000000     0.13235    
N1       N      0.161300000000     0.500000000000     0.750000000000    -0.228651   
N2       N      0.445200000000     0.500000000000     0.750000000000    -0.208672   
N3       N      0.338700000000     0.500000000000     0.750000000000    -0.228651   
N4       N      0.000000000000     0.554800000000     0.750000000000    -0.208672   
N5       N      0.000000000000     0.661300000000     0.750000000000    -0.228651   
N6       N      0.000000000000     0.945200000000     0.750000000000    -0.208673   
N7       N      0.000000000000     0.838700000000     0.750000000000    -0.228653   
N8       N      0.054800000000     0.500000000000     0.750000000000    -0.208672   
O1       O      0.339150000000     0.942550000000     0.750000000000    -0.430905   
O2       O      0.160850000000     0.557450000000     0.750000000000    -0.430905   
O3       O      0.160850000000     0.942550000000     0.750000000000    -0.430905   
O4       O      0.057450000000     0.839150000000     0.750000000000    -0.430905   
O5       O      0.339150000000     0.557450000000     0.750000000000    -0.430905   
O6       O      0.057450000000     0.660850000000     0.750000000000    -0.430905   
O7       O      0.442550000000     0.839150000000     0.750000000000    -0.430905   
O8       O      0.442550000000     0.660850000000     0.750000000000    -0.430905   
Si1      Si     0.000000000000     0.500000000000     0.875000000000     1.7752     
Zn1      Zn     0.000000000000     0.500000000000     0.750000000000     0.724192   
C1       C      0.892950000000     0.000000000000     0.038200000000    -0.208381   
C2       C      0.607050000000     0.000000000000     0.211800000000    -0.208381   
C3       C      0.677300000000     0.468750000000     0.000000000000     0.439626   
C4       C      0.714850000000     0.468600000000     0.000000000000    -0.054292   
C5       C      0.732100000000     0.439450000000     0.000000000000    -0.071706   
C6       C      0.927750000000     0.000000000000     0.036550000000     0.131843   
C7       C      0.531250000000     0.177300000000     0.000000000000     0.439625   
C8       C      0.531400000000     0.214850000000     0.000000000000    -0.054292   
C9       C      0.560550000000     0.232100000000     0.000000000000    -0.071706   
C10      C      0.500000000000     0.392950000000     0.211800000000    -0.208385   
C11      C      0.968750000000     0.322700000000     0.000000000000     0.439626   
C12      C      0.968600000000     0.285150000000     0.000000000000    -0.054292   
C13      C      0.939450000000     0.267900000000     0.000000000000    -0.071702   
C14      C      0.767900000000     0.060550000000     0.000000000000    -0.071735   
C15      C      0.500000000000     0.392950000000     0.038200000000    -0.208385   
C16      C      0.624550000000     0.000000000000     0.000000000000     0.25355    
C17      C      0.732150000000     0.000000000000     0.000000000000     0.016889   
C18      C      0.500000000000     0.107050000000     0.211800000000    -0.208381   
C19      C      0.875450000000     0.000000000000     0.000000000000     0.25355    
C20      C      0.767850000000     0.000000000000     0.000000000000     0.016885   
C21      C      0.500000000000     0.072250000000     0.213450000000     0.131843   
C22      C      0.500000000000     0.124550000000     0.000000000000     0.25355    
C23      C      0.500000000000     0.232150000000     0.000000000000     0.016885   
C24      C      0.892950000000     0.000000000000     0.211800000000    -0.208353   
C25      C      0.500000000000     0.375450000000     0.000000000000     0.253579   
C26      C      0.500000000000     0.267850000000     0.000000000000     0.016889   
C27      C      0.572250000000     0.000000000000     0.213450000000     0.131843   
C28      C      0.500000000000     0.427750000000     0.213450000000     0.131843   
C29      C      0.785150000000     0.031400000000     0.000000000000    -0.054262   
C30      C      0.927750000000     0.000000000000     0.213450000000     0.131839   
C31      C      0.572250000000     0.000000000000     0.036550000000     0.131839   
C32      C      0.677300000000     0.031250000000     0.000000000000     0.439625   
C33      C      0.714850000000     0.031400000000     0.000000000000    -0.054292   
C34      C      0.732100000000     0.060550000000     0.000000000000    -0.071703   
C35      C      0.500000000000     0.107050000000     0.038200000000    -0.208353   
C36      C      0.822700000000     0.031250000000     0.000000000000     0.439623   
C37      C      0.822700000000     0.468750000000     0.000000000000     0.439625   
C38      C      0.785150000000     0.468600000000     0.000000000000    -0.054292   
C39      C      0.767900000000     0.439450000000     0.000000000000    -0.071706   
C40      C      0.500000000000     0.427750000000     0.036550000000     0.131843   
C41      C      0.968750000000     0.177300000000     0.000000000000     0.439623   
C42      C      0.500000000000     0.072250000000     0.036550000000     0.131839   
C43      C      0.939450000000     0.232100000000     0.000000000000    -0.071735   
C44      C      0.607050000000     0.000000000000     0.038200000000    -0.208353   
C45      C      0.531250000000     0.322700000000     0.000000000000     0.439626   
C46      C      0.531400000000     0.285150000000     0.000000000000    -0.054292   
C47      C      0.560550000000     0.267900000000     0.000000000000    -0.071706   
C48      C      0.968600000000     0.214850000000     0.000000000000    -0.054262   
F1       F      0.529910000000     0.029910000000     0.125000000000    -0.555733   
F2       F      0.500000000000     0.000000000000     0.182125000000    -0.494221   
F3       F      0.500000000000     0.000000000000     0.067875000000    -0.494221   
F4       F      0.970090000000     0.470090000000     0.125000000000    -0.555733   
F5       F      0.970090000000     0.029910000000     0.125000000000    -0.555733   
F6       F      0.529910000000     0.470090000000     0.125000000000    -0.555733   
H1       H      0.881550000000     0.000000000000     0.183850000000     0.141524   
H2       H      0.500000000000     0.439750000000     0.064075000000     0.092371   
H3       H      0.939750000000     0.000000000000     0.185925000000     0.092371   
H4       H      0.500000000000     0.439750000000     0.185925000000     0.092371   
H5       H      0.500000000000     0.118450000000     0.183850000000     0.141526   
H6       H      0.500000000000     0.118450000000     0.066150000000     0.141524   
H7       H      0.500000000000     0.060250000000     0.064075000000     0.092371   
H8       H      0.500000000000     0.381550000000     0.183850000000     0.141526   
H9       H      0.618450000000     0.000000000000     0.066150000000     0.141524   
H10      H      0.939750000000     0.000000000000     0.064075000000     0.092371   
H11      H      0.881550000000     0.000000000000     0.066150000000     0.141526   
H12      H      0.560250000000     0.000000000000     0.064075000000     0.092371   
H13      H      0.500000000000     0.060250000000     0.185925000000     0.092371   
H14      H      0.918550000000     0.279800000000     0.000000000000     0.132348   
H15      H      0.500000000000     0.381550000000     0.066150000000     0.141526   
H16      H      0.560250000000     0.000000000000     0.185925000000     0.092371   
H17      H      0.581450000000     0.279800000000     0.000000000000     0.132348   
H18      H      0.779800000000     0.081450000000     0.000000000000     0.13235    
H19      H      0.618450000000     0.000000000000     0.183850000000     0.141526   
H20      H      0.720200000000     0.418550000000     0.000000000000     0.132348   
H21      H      0.720200000000     0.081450000000     0.000000000000     0.132348   
H22      H      0.581450000000     0.220200000000     0.000000000000     0.132348   
H23      H      0.779800000000     0.418550000000     0.000000000000     0.132348   
H24      H      0.918550000000     0.220200000000     0.000000000000     0.13235    
N1       N      0.661300000000     0.000000000000     0.000000000000    -0.228651   
N2       N      0.945200000000     0.000000000000     0.000000000000    -0.208672   
N3       N      0.838700000000     0.000000000000     0.000000000000    -0.228651   
N4       N      0.500000000000     0.054800000000     0.000000000000    -0.208672   
N5       N      0.500000000000     0.161300000000     0.000000000000    -0.228651   
N6       N      0.500000000000     0.445200000000     0.000000000000    -0.208673   
N7       N      0.500000000000     0.338700000000     0.000000000000    -0.228653   
N8       N      0.554800000000     0.000000000000     0.000000000000    -0.208672   
O1       O      0.839150000000     0.442550000000     0.000000000000    -0.430905   
O2       O      0.660850000000     0.057450000000     0.000000000000    -0.430905   
O3       O      0.660850000000     0.442550000000     0.000000000000    -0.430905   
O4       O      0.557450000000     0.339150000000     0.000000000000    -0.430905   
O5       O      0.839150000000     0.057450000000     0.000000000000    -0.430905   
O6       O      0.557450000000     0.160850000000     0.000000000000    -0.430905   
O7       O      0.942550000000     0.339150000000     0.000000000000    -0.430905   
O8       O      0.942550000000     0.160850000000     0.000000000000    -0.430905   
Si1      Si     0.500000000000     0.000000000000     0.125000000000     1.7752     
Zn1      Zn     0.500000000000     0.000000000000     0.000000000000     0.724192   
C1       C      0.892950000000     0.000000000000     0.288200000000    -0.208381   
C2       C      0.607050000000     0.000000000000     0.461800000000    -0.208381   
C3       C      0.677300000000     0.468750000000     0.250000000000     0.439626   
C4       C      0.714850000000     0.468600000000     0.250000000000    -0.054292   
C5       C      0.732100000000     0.439450000000     0.250000000000    -0.071706   
C6       C      0.927750000000     0.000000000000     0.286550000000     0.131843   
C7       C      0.531250000000     0.177300000000     0.250000000000     0.439625   
C8       C      0.531400000000     0.214850000000     0.250000000000    -0.054292   
C9       C      0.560550000000     0.232100000000     0.250000000000    -0.071706   
C10      C      0.500000000000     0.392950000000     0.461800000000    -0.208385   
C11      C      0.968750000000     0.322700000000     0.250000000000     0.439626   
C12      C      0.968600000000     0.285150000000     0.250000000000    -0.054292   
C13      C      0.939450000000     0.267900000000     0.250000000000    -0.071702   
C14      C      0.767900000000     0.060550000000     0.250000000000    -0.071735   
C15      C      0.500000000000     0.392950000000     0.288200000000    -0.208385   
C16      C      0.624550000000     0.000000000000     0.250000000000     0.25355    
C17      C      0.732150000000     0.000000000000     0.250000000000     0.016889   
C18      C      0.500000000000     0.107050000000     0.461800000000    -0.208381   
C19      C      0.875450000000     0.000000000000     0.250000000000     0.25355    
C20      C      0.767850000000     0.000000000000     0.250000000000     0.016885   
C21      C      0.500000000000     0.072250000000     0.463450000000     0.131843   
C22      C      0.500000000000     0.124550000000     0.250000000000     0.25355    
C23      C      0.500000000000     0.232150000000     0.250000000000     0.016885   
C24      C      0.892950000000     0.000000000000     0.461800000000    -0.208353   
C25      C      0.500000000000     0.375450000000     0.250000000000     0.253579   
C26      C      0.500000000000     0.267850000000     0.250000000000     0.016889   
C27      C      0.572250000000     0.000000000000     0.463450000000     0.131843   
C28      C      0.500000000000     0.427750000000     0.463450000000     0.131843   
C29      C      0.785150000000     0.031400000000     0.250000000000    -0.054262   
C30      C      0.927750000000     0.000000000000     0.463450000000     0.131839   
C31      C      0.572250000000     0.000000000000     0.286550000000     0.131839   
C32      C      0.677300000000     0.031250000000     0.250000000000     0.439625   
C33      C      0.714850000000     0.031400000000     0.250000000000    -0.054292   
C34      C      0.732100000000     0.060550000000     0.250000000000    -0.071703   
C35      C      0.500000000000     0.107050000000     0.288200000000    -0.208353   
C36      C      0.822700000000     0.031250000000     0.250000000000     0.439623   
C37      C      0.822700000000     0.468750000000     0.250000000000     0.439625   
C38      C      0.785150000000     0.468600000000     0.250000000000    -0.054292   
C39      C      0.767900000000     0.439450000000     0.250000000000    -0.071706   
C40      C      0.500000000000     0.427750000000     0.286550000000     0.131843   
C41      C      0.968750000000     0.177300000000     0.250000000000     0.439623   
C42      C      0.500000000000     0.072250000000     0.286550000000     0.131839   
C43      C      0.939450000000     0.232100000000     0.250000000000    -0.071735   
C44      C      0.607050000000     0.000000000000     0.288200000000    -0.208353   
C45      C      0.531250000000     0.322700000000     0.250000000000     0.439626   
C46      C      0.531400000000     0.285150000000     0.250000000000    -0.054292   
C47      C      0.560550000000     0.267900000000     0.250000000000    -0.071706   
C48      C      0.968600000000     0.214850000000     0.250000000000    -0.054262   
F1       F      0.529910000000     0.029910000000     0.375000000000    -0.555733   
F2       F      0.500000000000     0.000000000000     0.432125000000    -0.494221   
F3       F      0.500000000000     0.000000000000     0.317875000000    -0.494221   
F4       F      0.970090000000     0.470090000000     0.375000000000    -0.555733   
F5       F      0.970090000000     0.029910000000     0.375000000000    -0.555733   
F6       F      0.529910000000     0.470090000000     0.375000000000    -0.555733   
H1       H      0.881550000000     0.000000000000     0.433850000000     0.141524   
H2       H      0.500000000000     0.439750000000     0.314075000000     0.092371   
H3       H      0.939750000000     0.000000000000     0.435925000000     0.092371   
H4       H      0.500000000000     0.439750000000     0.435925000000     0.092371   
H5       H      0.500000000000     0.118450000000     0.433850000000     0.141526   
H6       H      0.500000000000     0.118450000000     0.316150000000     0.141524   
H7       H      0.500000000000     0.060250000000     0.314075000000     0.092371   
H8       H      0.500000000000     0.381550000000     0.433850000000     0.141526   
H9       H      0.618450000000     0.000000000000     0.316150000000     0.141524   
H10      H      0.939750000000     0.000000000000     0.314075000000     0.092371   
H11      H      0.881550000000     0.000000000000     0.316150000000     0.141526   
H12      H      0.560250000000     0.000000000000     0.314075000000     0.092371   
H13      H      0.500000000000     0.060250000000     0.435925000000     0.092371   
H14      H      0.918550000000     0.279800000000     0.250000000000     0.132348   
H15      H      0.500000000000     0.381550000000     0.316150000000     0.141526   
H16      H      0.560250000000     0.000000000000     0.435925000000     0.092371   
H17      H      0.581450000000     0.279800000000     0.250000000000     0.132348   
H18      H      0.779800000000     0.081450000000     0.250000000000     0.13235    
H19      H      0.618450000000     0.000000000000     0.433850000000     0.141526   
H20      H      0.720200000000     0.418550000000     0.250000000000     0.132348   
H21      H      0.720200000000     0.081450000000     0.250000000000     0.132348   
H22      H      0.581450000000     0.220200000000     0.250000000000     0.132348   
H23      H      0.779800000000     0.418550000000     0.250000000000     0.132348   
H24      H      0.918550000000     0.220200000000     0.250000000000     0.13235    
N1       N      0.661300000000     0.000000000000     0.250000000000    -0.228651   
N2       N      0.945200000000     0.000000000000     0.250000000000    -0.208672   
N3       N      0.838700000000     0.000000000000     0.250000000000    -0.228651   
N4       N      0.500000000000     0.054800000000     0.250000000000    -0.208672   
N5       N      0.500000000000     0.161300000000     0.250000000000    -0.228651   
N6       N      0.500000000000     0.445200000000     0.250000000000    -0.208673   
N7       N      0.500000000000     0.338700000000     0.250000000000    -0.228653   
N8       N      0.554800000000     0.000000000000     0.250000000000    -0.208672   
O1       O      0.839150000000     0.442550000000     0.250000000000    -0.430905   
O2       O      0.660850000000     0.057450000000     0.250000000000    -0.430905   
O3       O      0.660850000000     0.442550000000     0.250000000000    -0.430905   
O4       O      0.557450000000     0.339150000000     0.250000000000    -0.430905   
O5       O      0.839150000000     0.057450000000     0.250000000000    -0.430905   
O6       O      0.557450000000     0.160850000000     0.250000000000    -0.430905   
O7       O      0.942550000000     0.339150000000     0.250000000000    -0.430905   
O8       O      0.942550000000     0.160850000000     0.250000000000    -0.430905   
Si1      Si     0.500000000000     0.000000000000     0.375000000000     1.7752     
Zn1      Zn     0.500000000000     0.000000000000     0.250000000000     0.724192   
C1       C      0.892950000000     0.000000000000     0.538200000000    -0.208381   
C2       C      0.607050000000     0.000000000000     0.711800000000    -0.208381   
C3       C      0.677300000000     0.468750000000     0.500000000000     0.439626   
C4       C      0.714850000000     0.468600000000     0.500000000000    -0.054292   
C5       C      0.732100000000     0.439450000000     0.500000000000    -0.071706   
C6       C      0.927750000000     0.000000000000     0.536550000000     0.131843   
C7       C      0.531250000000     0.177300000000     0.500000000000     0.439625   
C8       C      0.531400000000     0.214850000000     0.500000000000    -0.054292   
C9       C      0.560550000000     0.232100000000     0.500000000000    -0.071706   
C10      C      0.500000000000     0.392950000000     0.711800000000    -0.208385   
C11      C      0.968750000000     0.322700000000     0.500000000000     0.439626   
C12      C      0.968600000000     0.285150000000     0.500000000000    -0.054292   
C13      C      0.939450000000     0.267900000000     0.500000000000    -0.071702   
C14      C      0.767900000000     0.060550000000     0.500000000000    -0.071735   
C15      C      0.500000000000     0.392950000000     0.538200000000    -0.208385   
C16      C      0.624550000000     0.000000000000     0.500000000000     0.25355    
C17      C      0.732150000000     0.000000000000     0.500000000000     0.016889   
C18      C      0.500000000000     0.107050000000     0.711800000000    -0.208381   
C19      C      0.875450000000     0.000000000000     0.500000000000     0.25355    
C20      C      0.767850000000     0.000000000000     0.500000000000     0.016885   
C21      C      0.500000000000     0.072250000000     0.713450000000     0.131843   
C22      C      0.500000000000     0.124550000000     0.500000000000     0.25355    
C23      C      0.500000000000     0.232150000000     0.500000000000     0.016885   
C24      C      0.892950000000     0.000000000000     0.711800000000    -0.208353   
C25      C      0.500000000000     0.375450000000     0.500000000000     0.253579   
C26      C      0.500000000000     0.267850000000     0.500000000000     0.016889   
C27      C      0.572250000000     0.000000000000     0.713450000000     0.131843   
C28      C      0.500000000000     0.427750000000     0.713450000000     0.131843   
C29      C      0.785150000000     0.031400000000     0.500000000000    -0.054262   
C30      C      0.927750000000     0.000000000000     0.713450000000     0.131839   
C31      C      0.572250000000     0.000000000000     0.536550000000     0.131839   
C32      C      0.677300000000     0.031250000000     0.500000000000     0.439625   
C33      C      0.714850000000     0.031400000000     0.500000000000    -0.054292   
C34      C      0.732100000000     0.060550000000     0.500000000000    -0.071703   
C35      C      0.500000000000     0.107050000000     0.538200000000    -0.208353   
C36      C      0.822700000000     0.031250000000     0.500000000000     0.439623   
C37      C      0.822700000000     0.468750000000     0.500000000000     0.439625   
C38      C      0.785150000000     0.468600000000     0.500000000000    -0.054292   
C39      C      0.767900000000     0.439450000000     0.500000000000    -0.071706   
C40      C      0.500000000000     0.427750000000     0.536550000000     0.131843   
C41      C      0.968750000000     0.177300000000     0.500000000000     0.439623   
C42      C      0.500000000000     0.072250000000     0.536550000000     0.131839   
C43      C      0.939450000000     0.232100000000     0.500000000000    -0.071735   
C44      C      0.607050000000     0.000000000000     0.538200000000    -0.208353   
C45      C      0.531250000000     0.322700000000     0.500000000000     0.439626   
C46      C      0.531400000000     0.285150000000     0.500000000000    -0.054292   
C47      C      0.560550000000     0.267900000000     0.500000000000    -0.071706   
C48      C      0.968600000000     0.214850000000     0.500000000000    -0.054262   
F1       F      0.529910000000     0.029910000000     0.625000000000    -0.555733   
F2       F      0.500000000000     0.000000000000     0.682125000000    -0.494221   
F3       F      0.500000000000     0.000000000000     0.567875000000    -0.494221   
F4       F      0.970090000000     0.470090000000     0.625000000000    -0.555733   
F5       F      0.970090000000     0.029910000000     0.625000000000    -0.555733   
F6       F      0.529910000000     0.470090000000     0.625000000000    -0.555733   
H1       H      0.881550000000     0.000000000000     0.683850000000     0.141524   
H2       H      0.500000000000     0.439750000000     0.564075000000     0.092371   
H3       H      0.939750000000     0.000000000000     0.685925000000     0.092371   
H4       H      0.500000000000     0.439750000000     0.685925000000     0.092371   
H5       H      0.500000000000     0.118450000000     0.683850000000     0.141526   
H6       H      0.500000000000     0.118450000000     0.566150000000     0.141524   
H7       H      0.500000000000     0.060250000000     0.564075000000     0.092371   
H8       H      0.500000000000     0.381550000000     0.683850000000     0.141526   
H9       H      0.618450000000     0.000000000000     0.566150000000     0.141524   
H10      H      0.939750000000     0.000000000000     0.564075000000     0.092371   
H11      H      0.881550000000     0.000000000000     0.566150000000     0.141526   
H12      H      0.560250000000     0.000000000000     0.564075000000     0.092371   
H13      H      0.500000000000     0.060250000000     0.685925000000     0.092371   
H14      H      0.918550000000     0.279800000000     0.500000000000     0.132348   
H15      H      0.500000000000     0.381550000000     0.566150000000     0.141526   
H16      H      0.560250000000     0.000000000000     0.685925000000     0.092371   
H17      H      0.581450000000     0.279800000000     0.500000000000     0.132348   
H18      H      0.779800000000     0.081450000000     0.500000000000     0.13235    
H19      H      0.618450000000     0.000000000000     0.683850000000     0.141526   
H20      H      0.720200000000     0.418550000000     0.500000000000     0.132348   
H21      H      0.720200000000     0.081450000000     0.500000000000     0.132348   
H22      H      0.581450000000     0.220200000000     0.500000000000     0.132348   
H23      H      0.779800000000     0.418550000000     0.500000000000     0.132348   
H24      H      0.918550000000     0.220200000000     0.500000000000     0.13235    
N1       N      0.661300000000     0.000000000000     0.500000000000    -0.228651   
N2       N      0.945200000000     0.000000000000     0.500000000000    -0.208672   
N3       N      0.838700000000     0.000000000000     0.500000000000    -0.228651   
N4       N      0.500000000000     0.054800000000     0.500000000000    -0.208672   
N5       N      0.500000000000     0.161300000000     0.500000000000    -0.228651   
N6       N      0.500000000000     0.445200000000     0.500000000000    -0.208673   
N7       N      0.500000000000     0.338700000000     0.500000000000    -0.228653   
N8       N      0.554800000000     0.000000000000     0.500000000000    -0.208672   
O1       O      0.839150000000     0.442550000000     0.500000000000    -0.430905   
O2       O      0.660850000000     0.057450000000     0.500000000000    -0.430905   
O3       O      0.660850000000     0.442550000000     0.500000000000    -0.430905   
O4       O      0.557450000000     0.339150000000     0.500000000000    -0.430905   
O5       O      0.839150000000     0.057450000000     0.500000000000    -0.430905   
O6       O      0.557450000000     0.160850000000     0.500000000000    -0.430905   
O7       O      0.942550000000     0.339150000000     0.500000000000    -0.430905   
O8       O      0.942550000000     0.160850000000     0.500000000000    -0.430905   
Si1      Si     0.500000000000     0.000000000000     0.625000000000     1.7752     
Zn1      Zn     0.500000000000     0.000000000000     0.500000000000     0.724192   
C1       C      0.892950000000     0.000000000000     0.788200000000    -0.208381   
C2       C      0.607050000000     0.000000000000     0.961800000000    -0.208381   
C3       C      0.677300000000     0.468750000000     0.750000000000     0.439626   
C4       C      0.714850000000     0.468600000000     0.750000000000    -0.054292   
C5       C      0.732100000000     0.439450000000     0.750000000000    -0.071706   
C6       C      0.927750000000     0.000000000000     0.786550000000     0.131843   
C7       C      0.531250000000     0.177300000000     0.750000000000     0.439625   
C8       C      0.531400000000     0.214850000000     0.750000000000    -0.054292   
C9       C      0.560550000000     0.232100000000     0.750000000000    -0.071706   
C10      C      0.500000000000     0.392950000000     0.961800000000    -0.208385   
C11      C      0.968750000000     0.322700000000     0.750000000000     0.439626   
C12      C      0.968600000000     0.285150000000     0.750000000000    -0.054292   
C13      C      0.939450000000     0.267900000000     0.750000000000    -0.071702   
C14      C      0.767900000000     0.060550000000     0.750000000000    -0.071735   
C15      C      0.500000000000     0.392950000000     0.788200000000    -0.208385   
C16      C      0.624550000000     0.000000000000     0.750000000000     0.25355    
C17      C      0.732150000000     0.000000000000     0.750000000000     0.016889   
C18      C      0.500000000000     0.107050000000     0.961800000000    -0.208381   
C19      C      0.875450000000     0.000000000000     0.750000000000     0.25355    
C20      C      0.767850000000     0.000000000000     0.750000000000     0.016885   
C21      C      0.500000000000     0.072250000000     0.963450000000     0.131843   
C22      C      0.500000000000     0.124550000000     0.750000000000     0.25355    
C23      C      0.500000000000     0.232150000000     0.750000000000     0.016885   
C24      C      0.892950000000     0.000000000000     0.961800000000    -0.208353   
C25      C      0.500000000000     0.375450000000     0.750000000000     0.253579   
C26      C      0.500000000000     0.267850000000     0.750000000000     0.016889   
C27      C      0.572250000000     0.000000000000     0.963450000000     0.131843   
C28      C      0.500000000000     0.427750000000     0.963450000000     0.131843   
C29      C      0.785150000000     0.031400000000     0.750000000000    -0.054262   
C30      C      0.927750000000     0.000000000000     0.963450000000     0.131839   
C31      C      0.572250000000     0.000000000000     0.786550000000     0.131839   
C32      C      0.677300000000     0.031250000000     0.750000000000     0.439625   
C33      C      0.714850000000     0.031400000000     0.750000000000    -0.054292   
C34      C      0.732100000000     0.060550000000     0.750000000000    -0.071703   
C35      C      0.500000000000     0.107050000000     0.788200000000    -0.208353   
C36      C      0.822700000000     0.031250000000     0.750000000000     0.439623   
C37      C      0.822700000000     0.468750000000     0.750000000000     0.439625   
C38      C      0.785150000000     0.468600000000     0.750000000000    -0.054292   
C39      C      0.767900000000     0.439450000000     0.750000000000    -0.071706   
C40      C      0.500000000000     0.427750000000     0.786550000000     0.131843   
C41      C      0.968750000000     0.177300000000     0.750000000000     0.439623   
C42      C      0.500000000000     0.072250000000     0.786550000000     0.131839   
C43      C      0.939450000000     0.232100000000     0.750000000000    -0.071735   
C44      C      0.607050000000     0.000000000000     0.788200000000    -0.208353   
C45      C      0.531250000000     0.322700000000     0.750000000000     0.439626   
C46      C      0.531400000000     0.285150000000     0.750000000000    -0.054292   
C47      C      0.560550000000     0.267900000000     0.750000000000    -0.071706   
C48      C      0.968600000000     0.214850000000     0.750000000000    -0.054262   
F1       F      0.529910000000     0.029910000000     0.875000000000    -0.555733   
F2       F      0.500000000000     0.000000000000     0.932125000000    -0.494221   
F3       F      0.500000000000     0.000000000000     0.817875000000    -0.494221   
F4       F      0.970090000000     0.470090000000     0.875000000000    -0.555733   
F5       F      0.970090000000     0.029910000000     0.875000000000    -0.555733   
F6       F      0.529910000000     0.470090000000     0.875000000000    -0.555733   
H1       H      0.881550000000     0.000000000000     0.933850000000     0.141524   
H2       H      0.500000000000     0.439750000000     0.814075000000     0.092371   
H3       H      0.939750000000     0.000000000000     0.935925000000     0.092371   
H4       H      0.500000000000     0.439750000000     0.935925000000     0.092371   
H5       H      0.500000000000     0.118450000000     0.933850000000     0.141526   
H6       H      0.500000000000     0.118450000000     0.816150000000     0.141524   
H7       H      0.500000000000     0.060250000000     0.814075000000     0.092371   
H8       H      0.500000000000     0.381550000000     0.933850000000     0.141526   
H9       H      0.618450000000     0.000000000000     0.816150000000     0.141524   
H10      H      0.939750000000     0.000000000000     0.814075000000     0.092371   
H11      H      0.881550000000     0.000000000000     0.816150000000     0.141526   
H12      H      0.560250000000     0.000000000000     0.814075000000     0.092371   
H13      H      0.500000000000     0.060250000000     0.935925000000     0.092371   
H14      H      0.918550000000     0.279800000000     0.750000000000     0.132348   
H15      H      0.500000000000     0.381550000000     0.816150000000     0.141526   
H16      H      0.560250000000     0.000000000000     0.935925000000     0.092371   
H17      H      0.581450000000     0.279800000000     0.750000000000     0.132348   
H18      H      0.779800000000     0.081450000000     0.750000000000     0.13235    
H19      H      0.618450000000     0.000000000000     0.933850000000     0.141526   
H20      H      0.720200000000     0.418550000000     0.750000000000     0.132348   
H21      H      0.720200000000     0.081450000000     0.750000000000     0.132348   
H22      H      0.581450000000     0.220200000000     0.750000000000     0.132348   
H23      H      0.779800000000     0.418550000000     0.750000000000     0.132348   
H24      H      0.918550000000     0.220200000000     0.750000000000     0.13235    
N1       N      0.661300000000     0.000000000000     0.750000000000    -0.228651   
N2       N      0.945200000000     0.000000000000     0.750000000000    -0.208672   
N3       N      0.838700000000     0.000000000000     0.750000000000    -0.228651   
N4       N      0.500000000000     0.054800000000     0.750000000000    -0.208672   
N5       N      0.500000000000     0.161300000000     0.750000000000    -0.228651   
N6       N      0.500000000000     0.445200000000     0.750000000000    -0.208673   
N7       N      0.500000000000     0.338700000000     0.750000000000    -0.228653   
N8       N      0.554800000000     0.000000000000     0.750000000000    -0.208672   
O1       O      0.839150000000     0.442550000000     0.750000000000    -0.430905   
O2       O      0.660850000000     0.057450000000     0.750000000000    -0.430905   
O3       O      0.660850000000     0.442550000000     0.750000000000    -0.430905   
O4       O      0.557450000000     0.339150000000     0.750000000000    -0.430905   
O5       O      0.839150000000     0.057450000000     0.750000000000    -0.430905   
O6       O      0.557450000000     0.160850000000     0.750000000000    -0.430905   
O7       O      0.942550000000     0.339150000000     0.750000000000    -0.430905   
O8       O      0.942550000000     0.160850000000     0.750000000000    -0.430905   
Si1      Si     0.500000000000     0.000000000000     0.875000000000     1.7752     
Zn1      Zn     0.500000000000     0.000000000000     0.750000000000     0.724192   
C1       C      0.892950000000     0.500000000000     0.038200000000    -0.208381   
C2       C      0.607050000000     0.500000000000     0.211800000000    -0.208381   
C3       C      0.677300000000     0.968750000000     0.000000000000     0.439626   
C4       C      0.714850000000     0.968600000000     0.000000000000    -0.054292   
C5       C      0.732100000000     0.939450000000     0.000000000000    -0.071706   
C6       C      0.927750000000     0.500000000000     0.036550000000     0.131843   
C7       C      0.531250000000     0.677300000000     0.000000000000     0.439625   
C8       C      0.531400000000     0.714850000000     0.000000000000    -0.054292   
C9       C      0.560550000000     0.732100000000     0.000000000000    -0.071706   
C10      C      0.500000000000     0.892950000000     0.211800000000    -0.208385   
C11      C      0.968750000000     0.822700000000     0.000000000000     0.439626   
C12      C      0.968600000000     0.785150000000     0.000000000000    -0.054292   
C13      C      0.939450000000     0.767900000000     0.000000000000    -0.071702   
C14      C      0.767900000000     0.560550000000     0.000000000000    -0.071735   
C15      C      0.500000000000     0.892950000000     0.038200000000    -0.208385   
C16      C      0.624550000000     0.500000000000     0.000000000000     0.25355    
C17      C      0.732150000000     0.500000000000     0.000000000000     0.016889   
C18      C      0.500000000000     0.607050000000     0.211800000000    -0.208381   
C19      C      0.875450000000     0.500000000000     0.000000000000     0.25355    
C20      C      0.767850000000     0.500000000000     0.000000000000     0.016885   
C21      C      0.500000000000     0.572250000000     0.213450000000     0.131843   
C22      C      0.500000000000     0.624550000000     0.000000000000     0.25355    
C23      C      0.500000000000     0.732150000000     0.000000000000     0.016885   
C24      C      0.892950000000     0.500000000000     0.211800000000    -0.208353   
C25      C      0.500000000000     0.875450000000     0.000000000000     0.253579   
C26      C      0.500000000000     0.767850000000     0.000000000000     0.016889   
C27      C      0.572250000000     0.500000000000     0.213450000000     0.131843   
C28      C      0.500000000000     0.927750000000     0.213450000000     0.131843   
C29      C      0.785150000000     0.531400000000     0.000000000000    -0.054262   
C30      C      0.927750000000     0.500000000000     0.213450000000     0.131839   
C31      C      0.572250000000     0.500000000000     0.036550000000     0.131839   
C32      C      0.677300000000     0.531250000000     0.000000000000     0.439625   
C33      C      0.714850000000     0.531400000000     0.000000000000    -0.054292   
C34      C      0.732100000000     0.560550000000     0.000000000000    -0.071703   
C35      C      0.500000000000     0.607050000000     0.038200000000    -0.208353   
C36      C      0.822700000000     0.531250000000     0.000000000000     0.439623   
C37      C      0.822700000000     0.968750000000     0.000000000000     0.439625   
C38      C      0.785150000000     0.968600000000     0.000000000000    -0.054292   
C39      C      0.767900000000     0.939450000000     0.000000000000    -0.071706   
C40      C      0.500000000000     0.927750000000     0.036550000000     0.131843   
C41      C      0.968750000000     0.677300000000     0.000000000000     0.439623   
C42      C      0.500000000000     0.572250000000     0.036550000000     0.131839   
C43      C      0.939450000000     0.732100000000     0.000000000000    -0.071735   
C44      C      0.607050000000     0.500000000000     0.038200000000    -0.208353   
C45      C      0.531250000000     0.822700000000     0.000000000000     0.439626   
C46      C      0.531400000000     0.785150000000     0.000000000000    -0.054292   
C47      C      0.560550000000     0.767900000000     0.000000000000    -0.071706   
C48      C      0.968600000000     0.714850000000     0.000000000000    -0.054262   
F1       F      0.529910000000     0.529910000000     0.125000000000    -0.555733   
F2       F      0.500000000000     0.500000000000     0.182125000000    -0.494221   
F3       F      0.500000000000     0.500000000000     0.067875000000    -0.494221   
F4       F      0.970090000000     0.970090000000     0.125000000000    -0.555733   
F5       F      0.970090000000     0.529910000000     0.125000000000    -0.555733   
F6       F      0.529910000000     0.970090000000     0.125000000000    -0.555733   
H1       H      0.881550000000     0.500000000000     0.183850000000     0.141524   
H2       H      0.500000000000     0.939750000000     0.064075000000     0.092371   
H3       H      0.939750000000     0.500000000000     0.185925000000     0.092371   
H4       H      0.500000000000     0.939750000000     0.185925000000     0.092371   
H5       H      0.500000000000     0.618450000000     0.183850000000     0.141526   
H6       H      0.500000000000     0.618450000000     0.066150000000     0.141524   
H7       H      0.500000000000     0.560250000000     0.064075000000     0.092371   
H8       H      0.500000000000     0.881550000000     0.183850000000     0.141526   
H9       H      0.618450000000     0.500000000000     0.066150000000     0.141524   
H10      H      0.939750000000     0.500000000000     0.064075000000     0.092371   
H11      H      0.881550000000     0.500000000000     0.066150000000     0.141526   
H12      H      0.560250000000     0.500000000000     0.064075000000     0.092371   
H13      H      0.500000000000     0.560250000000     0.185925000000     0.092371   
H14      H      0.918550000000     0.779800000000     0.000000000000     0.132348   
H15      H      0.500000000000     0.881550000000     0.066150000000     0.141526   
H16      H      0.560250000000     0.500000000000     0.185925000000     0.092371   
H17      H      0.581450000000     0.779800000000     0.000000000000     0.132348   
H18      H      0.779800000000     0.581450000000     0.000000000000     0.13235    
H19      H      0.618450000000     0.500000000000     0.183850000000     0.141526   
H20      H      0.720200000000     0.918550000000     0.000000000000     0.132348   
H21      H      0.720200000000     0.581450000000     0.000000000000     0.132348   
H22      H      0.581450000000     0.720200000000     0.000000000000     0.132348   
H23      H      0.779800000000     0.918550000000     0.000000000000     0.132348   
H24      H      0.918550000000     0.720200000000     0.000000000000     0.13235    
N1       N      0.661300000000     0.500000000000     0.000000000000    -0.228651   
N2       N      0.945200000000     0.500000000000     0.000000000000    -0.208672   
N3       N      0.838700000000     0.500000000000     0.000000000000    -0.228651   
N4       N      0.500000000000     0.554800000000     0.000000000000    -0.208672   
N5       N      0.500000000000     0.661300000000     0.000000000000    -0.228651   
N6       N      0.500000000000     0.945200000000     0.000000000000    -0.208673   
N7       N      0.500000000000     0.838700000000     0.000000000000    -0.228653   
N8       N      0.554800000000     0.500000000000     0.000000000000    -0.208672   
O1       O      0.839150000000     0.942550000000     0.000000000000    -0.430905   
O2       O      0.660850000000     0.557450000000     0.000000000000    -0.430905   
O3       O      0.660850000000     0.942550000000     0.000000000000    -0.430905   
O4       O      0.557450000000     0.839150000000     0.000000000000    -0.430905   
O5       O      0.839150000000     0.557450000000     0.000000000000    -0.430905   
O6       O      0.557450000000     0.660850000000     0.000000000000    -0.430905   
O7       O      0.942550000000     0.839150000000     0.000000000000    -0.430905   
O8       O      0.942550000000     0.660850000000     0.000000000000    -0.430905   
Si1      Si     0.500000000000     0.500000000000     0.125000000000     1.7752     
Zn1      Zn     0.500000000000     0.500000000000     0.000000000000     0.724192   
C1       C      0.892950000000     0.500000000000     0.288200000000    -0.208381   
C2       C      0.607050000000     0.500000000000     0.461800000000    -0.208381   
C3       C      0.677300000000     0.968750000000     0.250000000000     0.439626   
C4       C      0.714850000000     0.968600000000     0.250000000000    -0.054292   
C5       C      0.732100000000     0.939450000000     0.250000000000    -0.071706   
C6       C      0.927750000000     0.500000000000     0.286550000000     0.131843   
C7       C      0.531250000000     0.677300000000     0.250000000000     0.439625   
C8       C      0.531400000000     0.714850000000     0.250000000000    -0.054292   
C9       C      0.560550000000     0.732100000000     0.250000000000    -0.071706   
C10      C      0.500000000000     0.892950000000     0.461800000000    -0.208385   
C11      C      0.968750000000     0.822700000000     0.250000000000     0.439626   
C12      C      0.968600000000     0.785150000000     0.250000000000    -0.054292   
C13      C      0.939450000000     0.767900000000     0.250000000000    -0.071702   
C14      C      0.767900000000     0.560550000000     0.250000000000    -0.071735   
C15      C      0.500000000000     0.892950000000     0.288200000000    -0.208385   
C16      C      0.624550000000     0.500000000000     0.250000000000     0.25355    
C17      C      0.732150000000     0.500000000000     0.250000000000     0.016889   
C18      C      0.500000000000     0.607050000000     0.461800000000    -0.208381   
C19      C      0.875450000000     0.500000000000     0.250000000000     0.25355    
C20      C      0.767850000000     0.500000000000     0.250000000000     0.016885   
C21      C      0.500000000000     0.572250000000     0.463450000000     0.131843   
C22      C      0.500000000000     0.624550000000     0.250000000000     0.25355    
C23      C      0.500000000000     0.732150000000     0.250000000000     0.016885   
C24      C      0.892950000000     0.500000000000     0.461800000000    -0.208353   
C25      C      0.500000000000     0.875450000000     0.250000000000     0.253579   
C26      C      0.500000000000     0.767850000000     0.250000000000     0.016889   
C27      C      0.572250000000     0.500000000000     0.463450000000     0.131843   
C28      C      0.500000000000     0.927750000000     0.463450000000     0.131843   
C29      C      0.785150000000     0.531400000000     0.250000000000    -0.054262   
C30      C      0.927750000000     0.500000000000     0.463450000000     0.131839   
C31      C      0.572250000000     0.500000000000     0.286550000000     0.131839   
C32      C      0.677300000000     0.531250000000     0.250000000000     0.439625   
C33      C      0.714850000000     0.531400000000     0.250000000000    -0.054292   
C34      C      0.732100000000     0.560550000000     0.250000000000    -0.071703   
C35      C      0.500000000000     0.607050000000     0.288200000000    -0.208353   
C36      C      0.822700000000     0.531250000000     0.250000000000     0.439623   
C37      C      0.822700000000     0.968750000000     0.250000000000     0.439625   
C38      C      0.785150000000     0.968600000000     0.250000000000    -0.054292   
C39      C      0.767900000000     0.939450000000     0.250000000000    -0.071706   
C40      C      0.500000000000     0.927750000000     0.286550000000     0.131843   
C41      C      0.968750000000     0.677300000000     0.250000000000     0.439623   
C42      C      0.500000000000     0.572250000000     0.286550000000     0.131839   
C43      C      0.939450000000     0.732100000000     0.250000000000    -0.071735   
C44      C      0.607050000000     0.500000000000     0.288200000000    -0.208353   
C45      C      0.531250000000     0.822700000000     0.250000000000     0.439626   
C46      C      0.531400000000     0.785150000000     0.250000000000    -0.054292   
C47      C      0.560550000000     0.767900000000     0.250000000000    -0.071706   
C48      C      0.968600000000     0.714850000000     0.250000000000    -0.054262   
F1       F      0.529910000000     0.529910000000     0.375000000000    -0.555733   
F2       F      0.500000000000     0.500000000000     0.432125000000    -0.494221   
F3       F      0.500000000000     0.500000000000     0.317875000000    -0.494221   
F4       F      0.970090000000     0.970090000000     0.375000000000    -0.555733   
F5       F      0.970090000000     0.529910000000     0.375000000000    -0.555733   
F6       F      0.529910000000     0.970090000000     0.375000000000    -0.555733   
H1       H      0.881550000000     0.500000000000     0.433850000000     0.141524   
H2       H      0.500000000000     0.939750000000     0.314075000000     0.092371   
H3       H      0.939750000000     0.500000000000     0.435925000000     0.092371   
H4       H      0.500000000000     0.939750000000     0.435925000000     0.092371   
H5       H      0.500000000000     0.618450000000     0.433850000000     0.141526   
H6       H      0.500000000000     0.618450000000     0.316150000000     0.141524   
H7       H      0.500000000000     0.560250000000     0.314075000000     0.092371   
H8       H      0.500000000000     0.881550000000     0.433850000000     0.141526   
H9       H      0.618450000000     0.500000000000     0.316150000000     0.141524   
H10      H      0.939750000000     0.500000000000     0.314075000000     0.092371   
H11      H      0.881550000000     0.500000000000     0.316150000000     0.141526   
H12      H      0.560250000000     0.500000000000     0.314075000000     0.092371   
H13      H      0.500000000000     0.560250000000     0.435925000000     0.092371   
H14      H      0.918550000000     0.779800000000     0.250000000000     0.132348   
H15      H      0.500000000000     0.881550000000     0.316150000000     0.141526   
H16      H      0.560250000000     0.500000000000     0.435925000000     0.092371   
H17      H      0.581450000000     0.779800000000     0.250000000000     0.132348   
H18      H      0.779800000000     0.581450000000     0.250000000000     0.13235    
H19      H      0.618450000000     0.500000000000     0.433850000000     0.141526   
H20      H      0.720200000000     0.918550000000     0.250000000000     0.132348   
H21      H      0.720200000000     0.581450000000     0.250000000000     0.132348   
H22      H      0.581450000000     0.720200000000     0.250000000000     0.132348   
H23      H      0.779800000000     0.918550000000     0.250000000000     0.132348   
H24      H      0.918550000000     0.720200000000     0.250000000000     0.13235    
N1       N      0.661300000000     0.500000000000     0.250000000000    -0.228651   
N2       N      0.945200000000     0.500000000000     0.250000000000    -0.208672   
N3       N      0.838700000000     0.500000000000     0.250000000000    -0.228651   
N4       N      0.500000000000     0.554800000000     0.250000000000    -0.208672   
N5       N      0.500000000000     0.661300000000     0.250000000000    -0.228651   
N6       N      0.500000000000     0.945200000000     0.250000000000    -0.208673   
N7       N      0.500000000000     0.838700000000     0.250000000000    -0.228653   
N8       N      0.554800000000     0.500000000000     0.250000000000    -0.208672   
O1       O      0.839150000000     0.942550000000     0.250000000000    -0.430905   
O2       O      0.660850000000     0.557450000000     0.250000000000    -0.430905   
O3       O      0.660850000000     0.942550000000     0.250000000000    -0.430905   
O4       O      0.557450000000     0.839150000000     0.250000000000    -0.430905   
O5       O      0.839150000000     0.557450000000     0.250000000000    -0.430905   
O6       O      0.557450000000     0.660850000000     0.250000000000    -0.430905   
O7       O      0.942550000000     0.839150000000     0.250000000000    -0.430905   
O8       O      0.942550000000     0.660850000000     0.250000000000    -0.430905   
Si1      Si     0.500000000000     0.500000000000     0.375000000000     1.7752     
Zn1      Zn     0.500000000000     0.500000000000     0.250000000000     0.724192   
C1       C      0.892950000000     0.500000000000     0.538200000000    -0.208381   
C2       C      0.607050000000     0.500000000000     0.711800000000    -0.208381   
C3       C      0.677300000000     0.968750000000     0.500000000000     0.439626   
C4       C      0.714850000000     0.968600000000     0.500000000000    -0.054292   
C5       C      0.732100000000     0.939450000000     0.500000000000    -0.071706   
C6       C      0.927750000000     0.500000000000     0.536550000000     0.131843   
C7       C      0.531250000000     0.677300000000     0.500000000000     0.439625   
C8       C      0.531400000000     0.714850000000     0.500000000000    -0.054292   
C9       C      0.560550000000     0.732100000000     0.500000000000    -0.071706   
C10      C      0.500000000000     0.892950000000     0.711800000000    -0.208385   
C11      C      0.968750000000     0.822700000000     0.500000000000     0.439626   
C12      C      0.968600000000     0.785150000000     0.500000000000    -0.054292   
C13      C      0.939450000000     0.767900000000     0.500000000000    -0.071702   
C14      C      0.767900000000     0.560550000000     0.500000000000    -0.071735   
C15      C      0.500000000000     0.892950000000     0.538200000000    -0.208385   
C16      C      0.624550000000     0.500000000000     0.500000000000     0.25355    
C17      C      0.732150000000     0.500000000000     0.500000000000     0.016889   
C18      C      0.500000000000     0.607050000000     0.711800000000    -0.208381   
C19      C      0.875450000000     0.500000000000     0.500000000000     0.25355    
C20      C      0.767850000000     0.500000000000     0.500000000000     0.016885   
C21      C      0.500000000000     0.572250000000     0.713450000000     0.131843   
C22      C      0.500000000000     0.624550000000     0.500000000000     0.25355    
C23      C      0.500000000000     0.732150000000     0.500000000000     0.016885   
C24      C      0.892950000000     0.500000000000     0.711800000000    -0.208353   
C25      C      0.500000000000     0.875450000000     0.500000000000     0.253579   
C26      C      0.500000000000     0.767850000000     0.500000000000     0.016889   
C27      C      0.572250000000     0.500000000000     0.713450000000     0.131843   
C28      C      0.500000000000     0.927750000000     0.713450000000     0.131843   
C29      C      0.785150000000     0.531400000000     0.500000000000    -0.054262   
C30      C      0.927750000000     0.500000000000     0.713450000000     0.131839   
C31      C      0.572250000000     0.500000000000     0.536550000000     0.131839   
C32      C      0.677300000000     0.531250000000     0.500000000000     0.439625   
C33      C      0.714850000000     0.531400000000     0.500000000000    -0.054292   
C34      C      0.732100000000     0.560550000000     0.500000000000    -0.071703   
C35      C      0.500000000000     0.607050000000     0.538200000000    -0.208353   
C36      C      0.822700000000     0.531250000000     0.500000000000     0.439623   
C37      C      0.822700000000     0.968750000000     0.500000000000     0.439625   
C38      C      0.785150000000     0.968600000000     0.500000000000    -0.054292   
C39      C      0.767900000000     0.939450000000     0.500000000000    -0.071706   
C40      C      0.500000000000     0.927750000000     0.536550000000     0.131843   
C41      C      0.968750000000     0.677300000000     0.500000000000     0.439623   
C42      C      0.500000000000     0.572250000000     0.536550000000     0.131839   
C43      C      0.939450000000     0.732100000000     0.500000000000    -0.071735   
C44      C      0.607050000000     0.500000000000     0.538200000000    -0.208353   
C45      C      0.531250000000     0.822700000000     0.500000000000     0.439626   
C46      C      0.531400000000     0.785150000000     0.500000000000    -0.054292   
C47      C      0.560550000000     0.767900000000     0.500000000000    -0.071706   
C48      C      0.968600000000     0.714850000000     0.500000000000    -0.054262   
F1       F      0.529910000000     0.529910000000     0.625000000000    -0.555733   
F2       F      0.500000000000     0.500000000000     0.682125000000    -0.494221   
F3       F      0.500000000000     0.500000000000     0.567875000000    -0.494221   
F4       F      0.970090000000     0.970090000000     0.625000000000    -0.555733   
F5       F      0.970090000000     0.529910000000     0.625000000000    -0.555733   
F6       F      0.529910000000     0.970090000000     0.625000000000    -0.555733   
H1       H      0.881550000000     0.500000000000     0.683850000000     0.141524   
H2       H      0.500000000000     0.939750000000     0.564075000000     0.092371   
H3       H      0.939750000000     0.500000000000     0.685925000000     0.092371   
H4       H      0.500000000000     0.939750000000     0.685925000000     0.092371   
H5       H      0.500000000000     0.618450000000     0.683850000000     0.141526   
H6       H      0.500000000000     0.618450000000     0.566150000000     0.141524   
H7       H      0.500000000000     0.560250000000     0.564075000000     0.092371   
H8       H      0.500000000000     0.881550000000     0.683850000000     0.141526   
H9       H      0.618450000000     0.500000000000     0.566150000000     0.141524   
H10      H      0.939750000000     0.500000000000     0.564075000000     0.092371   
H11      H      0.881550000000     0.500000000000     0.566150000000     0.141526   
H12      H      0.560250000000     0.500000000000     0.564075000000     0.092371   
H13      H      0.500000000000     0.560250000000     0.685925000000     0.092371   
H14      H      0.918550000000     0.779800000000     0.500000000000     0.132348   
H15      H      0.500000000000     0.881550000000     0.566150000000     0.141526   
H16      H      0.560250000000     0.500000000000     0.685925000000     0.092371   
H17      H      0.581450000000     0.779800000000     0.500000000000     0.132348   
H18      H      0.779800000000     0.581450000000     0.500000000000     0.13235    
H19      H      0.618450000000     0.500000000000     0.683850000000     0.141526   
H20      H      0.720200000000     0.918550000000     0.500000000000     0.132348   
H21      H      0.720200000000     0.581450000000     0.500000000000     0.132348   
H22      H      0.581450000000     0.720200000000     0.500000000000     0.132348   
H23      H      0.779800000000     0.918550000000     0.500000000000     0.132348   
H24      H      0.918550000000     0.720200000000     0.500000000000     0.13235    
N1       N      0.661300000000     0.500000000000     0.500000000000    -0.228651   
N2       N      0.945200000000     0.500000000000     0.500000000000    -0.208672   
N3       N      0.838700000000     0.500000000000     0.500000000000    -0.228651   
N4       N      0.500000000000     0.554800000000     0.500000000000    -0.208672   
N5       N      0.500000000000     0.661300000000     0.500000000000    -0.228651   
N6       N      0.500000000000     0.945200000000     0.500000000000    -0.208673   
N7       N      0.500000000000     0.838700000000     0.500000000000    -0.228653   
N8       N      0.554800000000     0.500000000000     0.500000000000    -0.208672   
O1       O      0.839150000000     0.942550000000     0.500000000000    -0.430905   
O2       O      0.660850000000     0.557450000000     0.500000000000    -0.430905   
O3       O      0.660850000000     0.942550000000     0.500000000000    -0.430905   
O4       O      0.557450000000     0.839150000000     0.500000000000    -0.430905   
O5       O      0.839150000000     0.557450000000     0.500000000000    -0.430905   
O6       O      0.557450000000     0.660850000000     0.500000000000    -0.430905   
O7       O      0.942550000000     0.839150000000     0.500000000000    -0.430905   
O8       O      0.942550000000     0.660850000000     0.500000000000    -0.430905   
Si1      Si     0.500000000000     0.500000000000     0.625000000000     1.7752     
Zn1      Zn     0.500000000000     0.500000000000     0.500000000000     0.724192   
C1       C      0.892950000000     0.500000000000     0.788200000000    -0.208381   
C2       C      0.607050000000     0.500000000000     0.961800000000    -0.208381   
C3       C      0.677300000000     0.968750000000     0.750000000000     0.439626   
C4       C      0.714850000000     0.968600000000     0.750000000000    -0.054292   
C5       C      0.732100000000     0.939450000000     0.750000000000    -0.071706   
C6       C      0.927750000000     0.500000000000     0.786550000000     0.131843   
C7       C      0.531250000000     0.677300000000     0.750000000000     0.439625   
C8       C      0.531400000000     0.714850000000     0.750000000000    -0.054292   
C9       C      0.560550000000     0.732100000000     0.750000000000    -0.071706   
C10      C      0.500000000000     0.892950000000     0.961800000000    -0.208385   
C11      C      0.968750000000     0.822700000000     0.750000000000     0.439626   
C12      C      0.968600000000     0.785150000000     0.750000000000    -0.054292   
C13      C      0.939450000000     0.767900000000     0.750000000000    -0.071702   
C14      C      0.767900000000     0.560550000000     0.750000000000    -0.071735   
C15      C      0.500000000000     0.892950000000     0.788200000000    -0.208385   
C16      C      0.624550000000     0.500000000000     0.750000000000     0.25355    
C17      C      0.732150000000     0.500000000000     0.750000000000     0.016889   
C18      C      0.500000000000     0.607050000000     0.961800000000    -0.208381   
C19      C      0.875450000000     0.500000000000     0.750000000000     0.25355    
C20      C      0.767850000000     0.500000000000     0.750000000000     0.016885   
C21      C      0.500000000000     0.572250000000     0.963450000000     0.131843   
C22      C      0.500000000000     0.624550000000     0.750000000000     0.25355    
C23      C      0.500000000000     0.732150000000     0.750000000000     0.016885   
C24      C      0.892950000000     0.500000000000     0.961800000000    -0.208353   
C25      C      0.500000000000     0.875450000000     0.750000000000     0.253579   
C26      C      0.500000000000     0.767850000000     0.750000000000     0.016889   
C27      C      0.572250000000     0.500000000000     0.963450000000     0.131843   
C28      C      0.500000000000     0.927750000000     0.963450000000     0.131843   
C29      C      0.785150000000     0.531400000000     0.750000000000    -0.054262   
C30      C      0.927750000000     0.500000000000     0.963450000000     0.131839   
C31      C      0.572250000000     0.500000000000     0.786550000000     0.131839   
C32      C      0.677300000000     0.531250000000     0.750000000000     0.439625   
C33      C      0.714850000000     0.531400000000     0.750000000000    -0.054292   
C34      C      0.732100000000     0.560550000000     0.750000000000    -0.071703   
C35      C      0.500000000000     0.607050000000     0.788200000000    -0.208353   
C36      C      0.822700000000     0.531250000000     0.750000000000     0.439623   
C37      C      0.822700000000     0.968750000000     0.750000000000     0.439625   
C38      C      0.785150000000     0.968600000000     0.750000000000    -0.054292   
C39      C      0.767900000000     0.939450000000     0.750000000000    -0.071706   
C40      C      0.500000000000     0.927750000000     0.786550000000     0.131843   
C41      C      0.968750000000     0.677300000000     0.750000000000     0.439623   
C42      C      0.500000000000     0.572250000000     0.786550000000     0.131839   
C43      C      0.939450000000     0.732100000000     0.750000000000    -0.071735   
C44      C      0.607050000000     0.500000000000     0.788200000000    -0.208353   
C45      C      0.531250000000     0.822700000000     0.750000000000     0.439626   
C46      C      0.531400000000     0.785150000000     0.750000000000    -0.054292   
C47      C      0.560550000000     0.767900000000     0.750000000000    -0.071706   
C48      C      0.968600000000     0.714850000000     0.750000000000    -0.054262   
F1       F      0.529910000000     0.529910000000     0.875000000000    -0.555733   
F2       F      0.500000000000     0.500000000000     0.932125000000    -0.494221   
F3       F      0.500000000000     0.500000000000     0.817875000000    -0.494221   
F4       F      0.970090000000     0.970090000000     0.875000000000    -0.555733   
F5       F      0.970090000000     0.529910000000     0.875000000000    -0.555733   
F6       F      0.529910000000     0.970090000000     0.875000000000    -0.555733   
H1       H      0.881550000000     0.500000000000     0.933850000000     0.141524   
H2       H      0.500000000000     0.939750000000     0.814075000000     0.092371   
H3       H      0.939750000000     0.500000000000     0.935925000000     0.092371   
H4       H      0.500000000000     0.939750000000     0.935925000000     0.092371   
H5       H      0.500000000000     0.618450000000     0.933850000000     0.141526   
H6       H      0.500000000000     0.618450000000     0.816150000000     0.141524   
H7       H      0.500000000000     0.560250000000     0.814075000000     0.092371   
H8       H      0.500000000000     0.881550000000     0.933850000000     0.141526   
H9       H      0.618450000000     0.500000000000     0.816150000000     0.141524   
H10      H      0.939750000000     0.500000000000     0.814075000000     0.092371   
H11      H      0.881550000000     0.500000000000     0.816150000000     0.141526   
H12      H      0.560250000000     0.500000000000     0.814075000000     0.092371   
H13      H      0.500000000000     0.560250000000     0.935925000000     0.092371   
H14      H      0.918550000000     0.779800000000     0.750000000000     0.132348   
H15      H      0.500000000000     0.881550000000     0.816150000000     0.141526   
H16      H      0.560250000000     0.500000000000     0.935925000000     0.092371   
H17      H      0.581450000000     0.779800000000     0.750000000000     0.132348   
H18      H      0.779800000000     0.581450000000     0.750000000000     0.13235    
H19      H      0.618450000000     0.500000000000     0.933850000000     0.141526   
H20      H      0.720200000000     0.918550000000     0.750000000000     0.132348   
H21      H      0.720200000000     0.581450000000     0.750000000000     0.132348   
H22      H      0.581450000000     0.720200000000     0.750000000000     0.132348   
H23      H      0.779800000000     0.918550000000     0.750000000000     0.132348   
H24      H      0.918550000000     0.720200000000     0.750000000000     0.13235    
N1       N      0.661300000000     0.500000000000     0.750000000000    -0.228651   
N2       N      0.945200000000     0.500000000000     0.750000000000    -0.208672   
N3       N      0.838700000000     0.500000000000     0.750000000000    -0.228651   
N4       N      0.500000000000     0.554800000000     0.750000000000    -0.208672   
N5       N      0.500000000000     0.661300000000     0.750000000000    -0.228651   
N6       N      0.500000000000     0.945200000000     0.750000000000    -0.208673   
N7       N      0.500000000000     0.838700000000     0.750000000000    -0.228653   
N8       N      0.554800000000     0.500000000000     0.750000000000    -0.208672   
O1       O      0.839150000000     0.942550000000     0.750000000000    -0.430905   
O2       O      0.660850000000     0.557450000000     0.750000000000    -0.430905   
O3       O      0.660850000000     0.942550000000     0.750000000000    -0.430905   
O4       O      0.557450000000     0.839150000000     0.750000000000    -0.430905   
O5       O      0.839150000000     0.557450000000     0.750000000000    -0.430905   
O6       O      0.557450000000     0.660850000000     0.750000000000    -0.430905   
O7       O      0.942550000000     0.839150000000     0.750000000000    -0.430905   
O8       O      0.942550000000     0.660850000000     0.750000000000    -0.430905   
Si1      Si     0.500000000000     0.500000000000     0.875000000000     1.7752     
Zn1      Zn     0.500000000000     0.500000000000     0.750000000000     0.724192   


