data_JOXPIX_clean_DDEC

_audit_creation_method RASPA-1.0
_audit_creation_date 2025-9-8
_audit_author_name ''

_cell_length_a    13.8475
_cell_length_b    15.1719
_cell_length_c    16.477
_cell_angle_alpha 75.798
_cell_angle_beta  81.449
_cell_angle_gamma 63.074
_cell_volume      53806.7

_symmetry_cell_setting          triclinic
_symmetry_space_group_name_Hall 'P 1'
_symmetry_space_group_name_H-M  'P 1'
_symmetry_Int_Tables_number     1

_symmetry_equiv_pos_as_xyz 'x,y,z'

loop_
_atom_site_label
_atom_site_type_symbol
_atom_site_fract_x
_atom_site_fract_y
_atom_site_fract_z
_atom_site_charge
Ag1      Ag     0.254043333333     0.029036666667     0.130050000000     0.606469   
Ag1      Ag     0.254043333333     0.029036666667     0.630050000000     0.606469   
Ag1      Ag     0.254043333333     0.362370000000     0.130050000000     0.606469   
Ag1      Ag     0.254043333333     0.362370000000     0.630050000000     0.606469   
Ag1      Ag     0.254043333333     0.695703333333     0.130050000000     0.606469   
Ag1      Ag     0.254043333333     0.695703333333     0.630050000000     0.606469   
Ag1      Ag     0.587376666667     0.029036666667     0.130050000000     0.606469   
Ag1      Ag     0.587376666667     0.029036666667     0.630050000000     0.606469   
Ag1      Ag     0.587376666667     0.362370000000     0.130050000000     0.606469   
Ag1      Ag     0.587376666667     0.362370000000     0.630050000000     0.606469   
Ag1      Ag     0.587376666667     0.695703333333     0.130050000000     0.606469   
Ag1      Ag     0.587376666667     0.695703333333     0.630050000000     0.606469   
Ag1      Ag     0.920710000000     0.029036666667     0.130050000000     0.606469   
Ag1      Ag     0.920710000000     0.029036666667     0.630050000000     0.606469   
Ag1      Ag     0.920710000000     0.362370000000     0.130050000000     0.606469   
Ag1      Ag     0.920710000000     0.362370000000     0.630050000000     0.606469   
Ag1      Ag     0.920710000000     0.695703333333     0.130050000000     0.606469   
Ag1      Ag     0.920710000000     0.695703333333     0.630050000000     0.606469   
Ag2      Ag     0.190910000000     0.302223333333     0.200530000000     0.031773   
Ag2      Ag     0.190910000000     0.302223333333     0.700530000000     0.031773   
Ag2      Ag     0.190910000000     0.635556666667     0.200530000000     0.031773   
Ag2      Ag     0.190910000000     0.635556666667     0.700530000000     0.031773   
Ag2      Ag     0.190910000000     0.968890000000     0.200530000000     0.031773   
Ag2      Ag     0.190910000000     0.968890000000     0.700530000000     0.031773   
Ag2      Ag     0.524243333333     0.302223333333     0.200530000000     0.031773   
Ag2      Ag     0.524243333333     0.302223333333     0.700530000000     0.031773   
Ag2      Ag     0.524243333333     0.635556666667     0.200530000000     0.031773   
Ag2      Ag     0.524243333333     0.635556666667     0.700530000000     0.031773   
Ag2      Ag     0.524243333333     0.968890000000     0.200530000000     0.031773   
Ag2      Ag     0.524243333333     0.968890000000     0.700530000000     0.031773   
Ag2      Ag     0.857576666667     0.302223333333     0.200530000000     0.031773   
Ag2      Ag     0.857576666667     0.302223333333     0.700530000000     0.031773   
Ag2      Ag     0.857576666667     0.635556666667     0.200530000000     0.031773   
Ag2      Ag     0.857576666667     0.635556666667     0.700530000000     0.031773   
Ag2      Ag     0.857576666667     0.968890000000     0.200530000000     0.031773   
Ag2      Ag     0.857576666667     0.968890000000     0.700530000000     0.031773   
Ag3      Ag     0.110066666667     0.153936666667     0.152440000000     0.070428   
Ag3      Ag     0.110066666667     0.153936666667     0.652440000000     0.070428   
Ag3      Ag     0.110066666667     0.487270000000     0.152440000000     0.070428   
Ag3      Ag     0.110066666667     0.487270000000     0.652440000000     0.070428   
Ag3      Ag     0.110066666667     0.820603333333     0.152440000000     0.070428   
Ag3      Ag     0.110066666667     0.820603333333     0.652440000000     0.070428   
Ag3      Ag     0.443400000000     0.153936666667     0.152440000000     0.070428   
Ag3      Ag     0.443400000000     0.153936666667     0.652440000000     0.070428   
Ag3      Ag     0.443400000000     0.487270000000     0.152440000000     0.070428   
Ag3      Ag     0.443400000000     0.487270000000     0.652440000000     0.070428   
Ag3      Ag     0.443400000000     0.820603333333     0.152440000000     0.070428   
Ag3      Ag     0.443400000000     0.820603333333     0.652440000000     0.070428   
Ag3      Ag     0.776733333333     0.153936666667     0.152440000000     0.070428   
Ag3      Ag     0.776733333333     0.153936666667     0.652440000000     0.070428   
Ag3      Ag     0.776733333333     0.487270000000     0.152440000000     0.070428   
Ag3      Ag     0.776733333333     0.487270000000     0.652440000000     0.070428   
Ag3      Ag     0.776733333333     0.820603333333     0.152440000000     0.070428   
Ag3      Ag     0.776733333333     0.820603333333     0.652440000000     0.070428   
Ag4      Ag     0.079290000000     0.304296666667     0.369950000000     0.040763   
Ag4      Ag     0.079290000000     0.304296666667     0.869950000000     0.040763   
Ag4      Ag     0.079290000000     0.637630000000     0.369950000000     0.040763   
Ag4      Ag     0.079290000000     0.637630000000     0.869950000000     0.040763   
Ag4      Ag     0.079290000000     0.970963333333     0.369950000000     0.040763   
Ag4      Ag     0.079290000000     0.970963333333     0.869950000000     0.040763   
Ag4      Ag     0.412623333333     0.304296666667     0.369950000000     0.040763   
Ag4      Ag     0.412623333333     0.304296666667     0.869950000000     0.040763   
Ag4      Ag     0.412623333333     0.637630000000     0.369950000000     0.040763   
Ag4      Ag     0.412623333333     0.637630000000     0.869950000000     0.040763   
Ag4      Ag     0.412623333333     0.970963333333     0.369950000000     0.040763   
Ag4      Ag     0.412623333333     0.970963333333     0.869950000000     0.040763   
Ag4      Ag     0.745956666667     0.304296666667     0.369950000000     0.040763   
Ag4      Ag     0.745956666667     0.304296666667     0.869950000000     0.040763   
Ag4      Ag     0.745956666667     0.637630000000     0.369950000000     0.040763   
Ag4      Ag     0.745956666667     0.637630000000     0.869950000000     0.040763   
Ag4      Ag     0.745956666667     0.970963333333     0.369950000000     0.040763   
Ag4      Ag     0.745956666667     0.970963333333     0.869950000000     0.040763   
Ag5      Ag     0.000020000000     0.178900000000     0.178570000000     0.059045   
Ag5      Ag     0.000020000000     0.178900000000     0.678570000000     0.059045   
Ag5      Ag     0.000020000000     0.512233333333     0.178570000000     0.059045   
Ag5      Ag     0.000020000000     0.512233333333     0.678570000000     0.059045   
Ag5      Ag     0.000020000000     0.845566666667     0.178570000000     0.059045   
Ag5      Ag     0.000020000000     0.845566666667     0.678570000000     0.059045   
Ag5      Ag     0.333353333333     0.178900000000     0.178570000000     0.059045   
Ag5      Ag     0.333353333333     0.178900000000     0.678570000000     0.059045   
Ag5      Ag     0.333353333333     0.512233333333     0.178570000000     0.059045   
Ag5      Ag     0.333353333333     0.512233333333     0.678570000000     0.059045   
Ag5      Ag     0.333353333333     0.845566666667     0.178570000000     0.059045   
Ag5      Ag     0.333353333333     0.845566666667     0.678570000000     0.059045   
Ag5      Ag     0.666686666667     0.178900000000     0.178570000000     0.059045   
Ag5      Ag     0.666686666667     0.178900000000     0.678570000000     0.059045   
Ag5      Ag     0.666686666667     0.512233333333     0.178570000000     0.059045   
Ag5      Ag     0.666686666667     0.512233333333     0.678570000000     0.059045   
Ag5      Ag     0.666686666667     0.845566666667     0.178570000000     0.059045   
Ag5      Ag     0.666686666667     0.845566666667     0.678570000000     0.059045   
Ag6      Ag     0.221636666667     0.155666666667     0.486280000000     0.040965   
Ag6      Ag     0.221636666667     0.155666666667     0.986280000000     0.040965   
Ag6      Ag     0.221636666667     0.489000000000     0.486280000000     0.040965   
Ag6      Ag     0.221636666667     0.489000000000     0.986280000000     0.040965   
Ag6      Ag     0.221636666667     0.822333333333     0.486280000000     0.040965   
Ag6      Ag     0.221636666667     0.822333333333     0.986280000000     0.040965   
Ag6      Ag     0.554970000000     0.155666666667     0.486280000000     0.040965   
Ag6      Ag     0.554970000000     0.155666666667     0.986280000000     0.040965   
Ag6      Ag     0.554970000000     0.489000000000     0.486280000000     0.040965   
Ag6      Ag     0.554970000000     0.489000000000     0.986280000000     0.040965   
Ag6      Ag     0.554970000000     0.822333333333     0.486280000000     0.040965   
Ag6      Ag     0.554970000000     0.822333333333     0.986280000000     0.040965   
Ag6      Ag     0.888303333333     0.155666666667     0.486280000000     0.040965   
Ag6      Ag     0.888303333333     0.155666666667     0.986280000000     0.040965   
Ag6      Ag     0.888303333333     0.489000000000     0.486280000000     0.040965   
Ag6      Ag     0.888303333333     0.489000000000     0.986280000000     0.040965   
Ag6      Ag     0.888303333333     0.822333333333     0.486280000000     0.040965   
Ag6      Ag     0.888303333333     0.822333333333     0.986280000000     0.040965   
Ag7      Ag     0.029216666667     0.028756666667     0.461260000000     0.546019   
Ag7      Ag     0.029216666667     0.028756666667     0.961260000000     0.546019   
Ag7      Ag     0.029216666667     0.362090000000     0.461260000000     0.546019   
Ag7      Ag     0.029216666667     0.362090000000     0.961260000000     0.546019   
Ag7      Ag     0.029216666667     0.695423333333     0.461260000000     0.546019   
Ag7      Ag     0.029216666667     0.695423333333     0.961260000000     0.546019   
Ag7      Ag     0.362550000000     0.028756666667     0.461260000000     0.546019   
Ag7      Ag     0.362550000000     0.028756666667     0.961260000000     0.546019   
Ag7      Ag     0.362550000000     0.362090000000     0.461260000000     0.546019   
Ag7      Ag     0.362550000000     0.362090000000     0.961260000000     0.546019   
Ag7      Ag     0.362550000000     0.695423333333     0.461260000000     0.546019   
Ag7      Ag     0.362550000000     0.695423333333     0.961260000000     0.546019   
Ag7      Ag     0.695883333333     0.028756666667     0.461260000000     0.546019   
Ag7      Ag     0.695883333333     0.028756666667     0.961260000000     0.546019   
Ag7      Ag     0.695883333333     0.362090000000     0.461260000000     0.546019   
Ag7      Ag     0.695883333333     0.362090000000     0.961260000000     0.546019   
Ag7      Ag     0.695883333333     0.695423333333     0.461260000000     0.546019   
Ag7      Ag     0.695883333333     0.695423333333     0.961260000000     0.546019   
Ag8      Ag     0.223266666667     0.179396666667     0.347560000000     0.603972   
Ag8      Ag     0.223266666667     0.179396666667     0.847560000000     0.603972   
Ag8      Ag     0.223266666667     0.512730000000     0.347560000000     0.603972   
Ag8      Ag     0.223266666667     0.512730000000     0.847560000000     0.603972   
Ag8      Ag     0.223266666667     0.846063333333     0.347560000000     0.603972   
Ag8      Ag     0.223266666667     0.846063333333     0.847560000000     0.603972   
Ag8      Ag     0.556600000000     0.179396666667     0.347560000000     0.603972   
Ag8      Ag     0.556600000000     0.179396666667     0.847560000000     0.603972   
Ag8      Ag     0.556600000000     0.512730000000     0.347560000000     0.603972   
Ag8      Ag     0.556600000000     0.512730000000     0.847560000000     0.603972   
Ag8      Ag     0.556600000000     0.846063333333     0.347560000000     0.603972   
Ag8      Ag     0.556600000000     0.846063333333     0.847560000000     0.603972   
Ag8      Ag     0.889933333333     0.179396666667     0.347560000000     0.603972   
Ag8      Ag     0.889933333333     0.179396666667     0.847560000000     0.603972   
Ag8      Ag     0.889933333333     0.512730000000     0.347560000000     0.603972   
Ag8      Ag     0.889933333333     0.512730000000     0.847560000000     0.603972   
Ag8      Ag     0.889933333333     0.846063333333     0.347560000000     0.603972   
Ag8      Ag     0.889933333333     0.846063333333     0.847560000000     0.603972   
Ag9      Ag     0.142423333333     0.031110000000     0.299470000000     0.015192   
Ag9      Ag     0.142423333333     0.031110000000     0.799470000000     0.015192   
Ag9      Ag     0.142423333333     0.364443333333     0.299470000000     0.015192   
Ag9      Ag     0.142423333333     0.364443333333     0.799470000000     0.015192   
Ag9      Ag     0.142423333333     0.697776666667     0.299470000000     0.015192   
Ag9      Ag     0.142423333333     0.697776666667     0.799470000000     0.015192   
Ag9      Ag     0.475756666667     0.031110000000     0.299470000000     0.015192   
Ag9      Ag     0.475756666667     0.031110000000     0.799470000000     0.015192   
Ag9      Ag     0.475756666667     0.364443333333     0.299470000000     0.015192   
Ag9      Ag     0.475756666667     0.364443333333     0.799470000000     0.015192   
Ag9      Ag     0.475756666667     0.697776666667     0.299470000000     0.015192   
Ag9      Ag     0.475756666667     0.697776666667     0.799470000000     0.015192   
Ag9      Ag     0.809090000000     0.031110000000     0.299470000000     0.015192   
Ag9      Ag     0.809090000000     0.031110000000     0.799470000000     0.015192   
Ag9      Ag     0.809090000000     0.364443333333     0.299470000000     0.015192   
Ag9      Ag     0.809090000000     0.364443333333     0.799470000000     0.015192   
Ag9      Ag     0.809090000000     0.697776666667     0.299470000000     0.015192   
Ag9      Ag     0.809090000000     0.697776666667     0.799470000000     0.015192   
Ag10     Ag     0.111696666667     0.177666666667     0.013720000000     0.052495   
Ag10     Ag     0.111696666667     0.177666666667     0.513720000000     0.052495   
Ag10     Ag     0.111696666667     0.511000000000     0.013720000000     0.052495   
Ag10     Ag     0.111696666667     0.511000000000     0.513720000000     0.052495   
Ag10     Ag     0.111696666667     0.844333333333     0.013720000000     0.052495   
Ag10     Ag     0.111696666667     0.844333333333     0.513720000000     0.052495   
Ag10     Ag     0.445030000000     0.177666666667     0.013720000000     0.052495   
Ag10     Ag     0.445030000000     0.177666666667     0.513720000000     0.052495   
Ag10     Ag     0.445030000000     0.511000000000     0.013720000000     0.052495   
Ag10     Ag     0.445030000000     0.511000000000     0.513720000000     0.052495   
Ag10     Ag     0.445030000000     0.844333333333     0.013720000000     0.052495   
Ag10     Ag     0.445030000000     0.844333333333     0.513720000000     0.052495   
Ag10     Ag     0.778363333333     0.177666666667     0.013720000000     0.052495   
Ag10     Ag     0.778363333333     0.177666666667     0.513720000000     0.052495   
Ag10     Ag     0.778363333333     0.511000000000     0.013720000000     0.052495   
Ag10     Ag     0.778363333333     0.511000000000     0.513720000000     0.052495   
Ag10     Ag     0.778363333333     0.844333333333     0.013720000000     0.052495   
Ag10     Ag     0.778363333333     0.844333333333     0.513720000000     0.052495   
Ag11     Ag     0.304116666667     0.304576666667     0.038740000000     0.552331   
Ag11     Ag     0.304116666667     0.304576666667     0.538740000000     0.552331   
Ag11     Ag     0.304116666667     0.637910000000     0.038740000000     0.552331   
Ag11     Ag     0.304116666667     0.637910000000     0.538740000000     0.552331   
Ag11     Ag     0.304116666667     0.971243333333     0.038740000000     0.552331   
Ag11     Ag     0.304116666667     0.971243333333     0.538740000000     0.552331   
Ag11     Ag     0.637450000000     0.304576666667     0.038740000000     0.552331   
Ag11     Ag     0.637450000000     0.304576666667     0.538740000000     0.552331   
Ag11     Ag     0.637450000000     0.637910000000     0.038740000000     0.552331   
Ag11     Ag     0.637450000000     0.637910000000     0.538740000000     0.552331   
Ag11     Ag     0.637450000000     0.971243333333     0.038740000000     0.552331   
Ag11     Ag     0.637450000000     0.971243333333     0.538740000000     0.552331   
Ag11     Ag     0.970783333333     0.304576666667     0.038740000000     0.552331   
Ag11     Ag     0.970783333333     0.304576666667     0.538740000000     0.552331   
Ag11     Ag     0.970783333333     0.637910000000     0.038740000000     0.552331   
Ag11     Ag     0.970783333333     0.637910000000     0.538740000000     0.552331   
Ag11     Ag     0.970783333333     0.971243333333     0.038740000000     0.552331   
Ag11     Ag     0.970783333333     0.971243333333     0.538740000000     0.552331   
Ag12     Ag     0.333313333333     0.154433333333     0.321430000000    -0.011113   
Ag12     Ag     0.333313333333     0.154433333333     0.821430000000    -0.011113   
Ag12     Ag     0.333313333333     0.487766666667     0.321430000000    -0.011113   
Ag12     Ag     0.333313333333     0.487766666667     0.821430000000    -0.011113   
Ag12     Ag     0.333313333333     0.821100000000     0.321430000000    -0.011113   
Ag12     Ag     0.333313333333     0.821100000000     0.821430000000    -0.011113   
Ag12     Ag     0.666646666667     0.154433333333     0.321430000000    -0.011113   
Ag12     Ag     0.666646666667     0.154433333333     0.821430000000    -0.011113   
Ag12     Ag     0.666646666667     0.487766666667     0.321430000000    -0.011113   
Ag12     Ag     0.666646666667     0.487766666667     0.821430000000    -0.011113   
Ag12     Ag     0.666646666667     0.821100000000     0.321430000000    -0.011113   
Ag12     Ag     0.666646666667     0.821100000000     0.821430000000    -0.011113   
Ag12     Ag     0.999980000000     0.154433333333     0.321430000000    -0.011113   
Ag12     Ag     0.999980000000     0.154433333333     0.821430000000    -0.011113   
Ag12     Ag     0.999980000000     0.487766666667     0.321430000000    -0.011113   
Ag12     Ag     0.999980000000     0.487766666667     0.821430000000    -0.011113   
Ag12     Ag     0.999980000000     0.821100000000     0.321430000000    -0.011113   
Ag12     Ag     0.999980000000     0.821100000000     0.821430000000    -0.011113   
C1       C      0.269766666667     0.196333333333     0.253150000000     0.038743   
C1       C      0.269766666667     0.196333333333     0.753150000000     0.038743   
C1       C      0.269766666667     0.529666666667     0.253150000000     0.038743   
C1       C      0.269766666667     0.529666666667     0.753150000000     0.038743   
C1       C      0.269766666667     0.863000000000     0.253150000000     0.038743   
C1       C      0.269766666667     0.863000000000     0.753150000000     0.038743   
C1       C      0.603100000000     0.196333333333     0.253150000000     0.038743   
C1       C      0.603100000000     0.196333333333     0.753150000000     0.038743   
C1       C      0.603100000000     0.529666666667     0.253150000000     0.038743   
C1       C      0.603100000000     0.529666666667     0.753150000000     0.038743   
C1       C      0.603100000000     0.863000000000     0.253150000000     0.038743   
C1       C      0.603100000000     0.863000000000     0.753150000000     0.038743   
C1       C      0.936433333333     0.196333333333     0.253150000000     0.038743   
C1       C      0.936433333333     0.196333333333     0.753150000000     0.038743   
C1       C      0.936433333333     0.529666666667     0.253150000000     0.038743   
C1       C      0.936433333333     0.529666666667     0.753150000000     0.038743   
C1       C      0.936433333333     0.863000000000     0.253150000000     0.038743   
C1       C      0.936433333333     0.863000000000     0.753150000000     0.038743   
C2       C      0.018000000000     0.226700000000     0.071600000000     0.040963   
C2       C      0.018000000000     0.226700000000     0.571600000000     0.040963   
C2       C      0.018000000000     0.560033333333     0.071600000000     0.040963   
C2       C      0.018000000000     0.560033333333     0.571600000000     0.040963   
C2       C      0.018000000000     0.893366666667     0.071600000000     0.040963   
C2       C      0.018000000000     0.893366666667     0.571600000000     0.040963   
C2       C      0.351333333333     0.226700000000     0.071600000000     0.040963   
C2       C      0.351333333333     0.226700000000     0.571600000000     0.040963   
C2       C      0.351333333333     0.560033333333     0.071600000000     0.040963   
C2       C      0.351333333333     0.560033333333     0.571600000000     0.040963   
C2       C      0.351333333333     0.893366666667     0.071600000000     0.040963   
C2       C      0.351333333333     0.893366666667     0.571600000000     0.040963   
C2       C      0.684666666667     0.226700000000     0.071600000000     0.040963   
C2       C      0.684666666667     0.226700000000     0.571600000000     0.040963   
C2       C      0.684666666667     0.560033333333     0.071600000000     0.040963   
C2       C      0.684666666667     0.560033333333     0.571600000000     0.040963   
C2       C      0.684666666667     0.893366666667     0.071600000000     0.040963   
C2       C      0.684666666667     0.893366666667     0.571600000000     0.040963   
C3       C      0.064866666667     0.229733333333     0.117300000000     0.050467   
C3       C      0.064866666667     0.229733333333     0.617300000000     0.050467   
C3       C      0.064866666667     0.563066666667     0.117300000000     0.050467   
C3       C      0.064866666667     0.563066666667     0.617300000000     0.050467   
C3       C      0.064866666667     0.896400000000     0.117300000000     0.050467   
C3       C      0.064866666667     0.896400000000     0.617300000000     0.050467   
C3       C      0.398200000000     0.229733333333     0.117300000000     0.050467   
C3       C      0.398200000000     0.229733333333     0.617300000000     0.050467   
C3       C      0.398200000000     0.563066666667     0.117300000000     0.050467   
C3       C      0.398200000000     0.563066666667     0.617300000000     0.050467   
C3       C      0.398200000000     0.896400000000     0.117300000000     0.050467   
C3       C      0.398200000000     0.896400000000     0.617300000000     0.050467   
C3       C      0.731533333333     0.229733333333     0.117300000000     0.050467   
C3       C      0.731533333333     0.229733333333     0.617300000000     0.050467   
C3       C      0.731533333333     0.563066666667     0.117300000000     0.050467   
C3       C      0.731533333333     0.563066666667     0.617300000000     0.050467   
C3       C      0.731533333333     0.896400000000     0.117300000000     0.050467   
C3       C      0.731533333333     0.896400000000     0.617300000000     0.050467   
C4       C      0.037666666667     0.258533333333     0.095750000000     0.03504    
C4       C      0.037666666667     0.258533333333     0.595750000000     0.03504    
C4       C      0.037666666667     0.591866666667     0.095750000000     0.03504    
C4       C      0.037666666667     0.591866666667     0.595750000000     0.03504    
C4       C      0.037666666667     0.925200000000     0.095750000000     0.03504    
C4       C      0.037666666667     0.925200000000     0.595750000000     0.03504    
C4       C      0.371000000000     0.258533333333     0.095750000000     0.03504    
C4       C      0.371000000000     0.258533333333     0.595750000000     0.03504    
C4       C      0.371000000000     0.591866666667     0.095750000000     0.03504    
C4       C      0.371000000000     0.591866666667     0.595750000000     0.03504    
C4       C      0.371000000000     0.925200000000     0.095750000000     0.03504    
C4       C      0.371000000000     0.925200000000     0.595750000000     0.03504    
C4       C      0.704333333333     0.258533333333     0.095750000000     0.03504    
C4       C      0.704333333333     0.258533333333     0.595750000000     0.03504    
C4       C      0.704333333333     0.591866666667     0.095750000000     0.03504    
C4       C      0.704333333333     0.591866666667     0.595750000000     0.03504    
C4       C      0.704333333333     0.925200000000     0.095750000000     0.03504    
C4       C      0.704333333333     0.925200000000     0.595750000000     0.03504    
C5       C      0.050700000000     0.161933333333     0.093800000000     0.058144   
C5       C      0.050700000000     0.161933333333     0.593800000000     0.058144   
C5       C      0.050700000000     0.495266666667     0.093800000000     0.058144   
C5       C      0.050700000000     0.495266666667     0.593800000000     0.058144   
C5       C      0.050700000000     0.828600000000     0.093800000000     0.058144   
C5       C      0.050700000000     0.828600000000     0.593800000000     0.058144   
C5       C      0.384033333333     0.161933333333     0.093800000000     0.058144   
C5       C      0.384033333333     0.161933333333     0.593800000000     0.058144   
C5       C      0.384033333333     0.495266666667     0.093800000000     0.058144   
C5       C      0.384033333333     0.495266666667     0.593800000000     0.058144   
C5       C      0.384033333333     0.828600000000     0.093800000000     0.058144   
C5       C      0.384033333333     0.828600000000     0.593800000000     0.058144   
C5       C      0.717366666667     0.161933333333     0.093800000000     0.058144   
C5       C      0.717366666667     0.161933333333     0.593800000000     0.058144   
C5       C      0.717366666667     0.495266666667     0.093800000000     0.058144   
C5       C      0.717366666667     0.495266666667     0.593800000000     0.058144   
C5       C      0.717366666667     0.828600000000     0.093800000000     0.058144   
C5       C      0.717366666667     0.828600000000     0.593800000000     0.058144   
C6       C      0.325800000000     0.224100000000     0.045650000000     0.597952   
C6       C      0.325800000000     0.224100000000     0.545650000000     0.597952   
C6       C      0.325800000000     0.557433333333     0.045650000000     0.597952   
C6       C      0.325800000000     0.557433333333     0.545650000000     0.597952   
C6       C      0.325800000000     0.890766666667     0.045650000000     0.597952   
C6       C      0.325800000000     0.890766666667     0.545650000000     0.597952   
C6       C      0.659133333333     0.224100000000     0.045650000000     0.597952   
C6       C      0.659133333333     0.224100000000     0.545650000000     0.597952   
C6       C      0.659133333333     0.557433333333     0.045650000000     0.597952   
C6       C      0.659133333333     0.557433333333     0.545650000000     0.597952   
C6       C      0.659133333333     0.890766666667     0.045650000000     0.597952   
C6       C      0.659133333333     0.890766666667     0.545650000000     0.597952   
C6       C      0.992466666667     0.224100000000     0.045650000000     0.597952   
C6       C      0.992466666667     0.224100000000     0.545650000000     0.597952   
C6       C      0.992466666667     0.557433333333     0.045650000000     0.597952   
C6       C      0.992466666667     0.557433333333     0.545650000000     0.597952   
C6       C      0.992466666667     0.890766666667     0.045650000000     0.597952   
C6       C      0.992466666667     0.890766666667     0.545650000000     0.597952   
C7       C      0.055300000000     0.252033333333     0.476200000000     0.597515   
C7       C      0.055300000000     0.252033333333     0.976200000000     0.597515   
C7       C      0.055300000000     0.585366666667     0.476200000000     0.597515   
C7       C      0.055300000000     0.585366666667     0.976200000000     0.597515   
C7       C      0.055300000000     0.918700000000     0.476200000000     0.597515   
C7       C      0.055300000000     0.918700000000     0.976200000000     0.597515   
C7       C      0.388633333333     0.252033333333     0.476200000000     0.597515   
C7       C      0.388633333333     0.252033333333     0.976200000000     0.597515   
C7       C      0.388633333333     0.585366666667     0.476200000000     0.597515   
C7       C      0.388633333333     0.585366666667     0.976200000000     0.597515   
C7       C      0.388633333333     0.918700000000     0.476200000000     0.597515   
C7       C      0.388633333333     0.918700000000     0.976200000000     0.597515   
C7       C      0.721966666667     0.252033333333     0.476200000000     0.597515   
C7       C      0.721966666667     0.252033333333     0.976200000000     0.597515   
C7       C      0.721966666667     0.585366666667     0.476200000000     0.597515   
C7       C      0.721966666667     0.585366666667     0.976200000000     0.597515   
C7       C      0.721966666667     0.918700000000     0.476200000000     0.597515   
C7       C      0.721966666667     0.918700000000     0.976200000000     0.597515   
C8       C      0.077133333333     0.288666666667     0.007300000000     0.043286   
C8       C      0.077133333333     0.288666666667     0.507300000000     0.043286   
C8       C      0.077133333333     0.622000000000     0.007300000000     0.043286   
C8       C      0.077133333333     0.622000000000     0.507300000000     0.043286   
C8       C      0.077133333333     0.955333333333     0.007300000000     0.043286   
C8       C      0.077133333333     0.955333333333     0.507300000000     0.043286   
C8       C      0.410466666667     0.288666666667     0.007300000000     0.043286   
C8       C      0.410466666667     0.288666666667     0.507300000000     0.043286   
C8       C      0.410466666667     0.622000000000     0.007300000000     0.043286   
C8       C      0.410466666667     0.622000000000     0.507300000000     0.043286   
C8       C      0.410466666667     0.955333333333     0.007300000000     0.043286   
C8       C      0.410466666667     0.955333333333     0.507300000000     0.043286   
C8       C      0.743800000000     0.288666666667     0.007300000000     0.043286   
C8       C      0.743800000000     0.288666666667     0.507300000000     0.043286   
C8       C      0.743800000000     0.622000000000     0.007300000000     0.043286   
C8       C      0.743800000000     0.622000000000     0.507300000000     0.043286   
C8       C      0.743800000000     0.955333333333     0.007300000000     0.043286   
C8       C      0.743800000000     0.955333333333     0.507300000000     0.043286   
C9       C      0.094766666667     0.254366666667     0.015950000000     0.049546   
C9       C      0.094766666667     0.254366666667     0.515950000000     0.049546   
C9       C      0.094766666667     0.587700000000     0.015950000000     0.049546   
C9       C      0.094766666667     0.587700000000     0.515950000000     0.049546   
C9       C      0.094766666667     0.921033333333     0.015950000000     0.049546   
C9       C      0.094766666667     0.921033333333     0.515950000000     0.049546   
C9       C      0.428100000000     0.254366666667     0.015950000000     0.049546   
C9       C      0.428100000000     0.254366666667     0.515950000000     0.049546   
C9       C      0.428100000000     0.587700000000     0.015950000000     0.049546   
C9       C      0.428100000000     0.587700000000     0.515950000000     0.049546   
C9       C      0.428100000000     0.921033333333     0.015950000000     0.049546   
C9       C      0.428100000000     0.921033333333     0.515950000000     0.049546   
C9       C      0.761433333333     0.254366666667     0.015950000000     0.049546   
C9       C      0.761433333333     0.254366666667     0.515950000000     0.049546   
C9       C      0.761433333333     0.587700000000     0.015950000000     0.049546   
C9       C      0.761433333333     0.587700000000     0.515950000000     0.049546   
C9       C      0.761433333333     0.921033333333     0.015950000000     0.049546   
C9       C      0.761433333333     0.921033333333     0.515950000000     0.049546   
C10      C      0.045166666667     0.197633333333     0.094000000000     0.063166   
C10      C      0.045166666667     0.197633333333     0.594000000000     0.063166   
C10      C      0.045166666667     0.530966666667     0.094000000000     0.063166   
C10      C      0.045166666667     0.530966666667     0.594000000000     0.063166   
C10      C      0.045166666667     0.864300000000     0.094000000000     0.063166   
C10      C      0.045166666667     0.864300000000     0.594000000000     0.063166   
C10      C      0.378500000000     0.197633333333     0.094000000000     0.063166   
C10      C      0.378500000000     0.197633333333     0.594000000000     0.063166   
C10      C      0.378500000000     0.530966666667     0.094000000000     0.063166   
C10      C      0.378500000000     0.530966666667     0.594000000000     0.063166   
C10      C      0.378500000000     0.864300000000     0.094000000000     0.063166   
C10      C      0.378500000000     0.864300000000     0.594000000000     0.063166   
C10      C      0.711833333333     0.197633333333     0.094000000000     0.063166   
C10      C      0.711833333333     0.197633333333     0.594000000000     0.063166   
C10      C      0.711833333333     0.530966666667     0.094000000000     0.063166   
C10      C      0.711833333333     0.530966666667     0.594000000000     0.063166   
C10      C      0.711833333333     0.864300000000     0.094000000000     0.063166   
C10      C      0.711833333333     0.864300000000     0.594000000000     0.063166   
C11      C      0.241300000000     0.225100000000     0.233850000000     0.002903   
C11      C      0.241300000000     0.225100000000     0.733850000000     0.002903   
C11      C      0.241300000000     0.558433333333     0.233850000000     0.002903   
C11      C      0.241300000000     0.558433333333     0.733850000000     0.002903   
C11      C      0.241300000000     0.891766666667     0.233850000000     0.002903   
C11      C      0.241300000000     0.891766666667     0.733850000000     0.002903   
C11      C      0.574633333333     0.225100000000     0.233850000000     0.002903   
C11      C      0.574633333333     0.225100000000     0.733850000000     0.002903   
C11      C      0.574633333333     0.558433333333     0.233850000000     0.002903   
C11      C      0.574633333333     0.558433333333     0.733850000000     0.002903   
C11      C      0.574633333333     0.891766666667     0.233850000000     0.002903   
C11      C      0.574633333333     0.891766666667     0.733850000000     0.002903   
C11      C      0.907966666667     0.225100000000     0.233850000000     0.002903   
C11      C      0.907966666667     0.225100000000     0.733850000000     0.002903   
C11      C      0.907966666667     0.558433333333     0.233850000000     0.002903   
C11      C      0.907966666667     0.558433333333     0.733850000000     0.002903   
C11      C      0.907966666667     0.891766666667     0.233850000000     0.002903   
C11      C      0.907966666667     0.891766666667     0.733850000000     0.002903   
C12      C      0.171066666667     0.171666666667     0.075250000000     0.605366   
C12      C      0.171066666667     0.171666666667     0.575250000000     0.605366   
C12      C      0.171066666667     0.505000000000     0.075250000000     0.605366   
C12      C      0.171066666667     0.505000000000     0.575250000000     0.605366   
C12      C      0.171066666667     0.838333333333     0.075250000000     0.605366   
C12      C      0.171066666667     0.838333333333     0.575250000000     0.605366   
C12      C      0.504400000000     0.171666666667     0.075250000000     0.605366   
C12      C      0.504400000000     0.171666666667     0.575250000000     0.605366   
C12      C      0.504400000000     0.505000000000     0.075250000000     0.605366   
C12      C      0.504400000000     0.505000000000     0.575250000000     0.605366   
C12      C      0.504400000000     0.838333333333     0.075250000000     0.605366   
C12      C      0.504400000000     0.838333333333     0.575250000000     0.605366   
C12      C      0.837733333333     0.171666666667     0.075250000000     0.605366   
C12      C      0.837733333333     0.171666666667     0.575250000000     0.605366   
C12      C      0.837733333333     0.505000000000     0.075250000000     0.605366   
C12      C      0.837733333333     0.505000000000     0.575250000000     0.605366   
C12      C      0.837733333333     0.838333333333     0.075250000000     0.605366   
C12      C      0.837733333333     0.838333333333     0.575250000000     0.605366   
C13      C      0.044333333333     0.230066666667     0.458000000000     0.558743   
C13      C      0.044333333333     0.230066666667     0.958000000000     0.558743   
C13      C      0.044333333333     0.563400000000     0.458000000000     0.558743   
C13      C      0.044333333333     0.563400000000     0.958000000000     0.558743   
C13      C      0.044333333333     0.896733333333     0.458000000000     0.558743   
C13      C      0.044333333333     0.896733333333     0.958000000000     0.558743   
C13      C      0.377666666667     0.230066666667     0.458000000000     0.558743   
C13      C      0.377666666667     0.230066666667     0.958000000000     0.558743   
C13      C      0.377666666667     0.563400000000     0.458000000000     0.558743   
C13      C      0.377666666667     0.563400000000     0.958000000000     0.558743   
C13      C      0.377666666667     0.896733333333     0.458000000000     0.558743   
C13      C      0.377666666667     0.896733333333     0.958000000000     0.558743   
C13      C      0.711000000000     0.230066666667     0.458000000000     0.558743   
C13      C      0.711000000000     0.230066666667     0.958000000000     0.558743   
C13      C      0.711000000000     0.563400000000     0.458000000000     0.558743   
C13      C      0.711000000000     0.563400000000     0.958000000000     0.558743   
C13      C      0.711000000000     0.896733333333     0.458000000000     0.558743   
C13      C      0.711000000000     0.896733333333     0.958000000000     0.558743   
C14      C      0.186300000000     0.074200000000     0.073200000000     0.043308   
C14      C      0.186300000000     0.074200000000     0.573200000000     0.043308   
C14      C      0.186300000000     0.407533333333     0.073200000000     0.043308   
C14      C      0.186300000000     0.407533333333     0.573200000000     0.043308   
C14      C      0.186300000000     0.740866666667     0.073200000000     0.043308   
C14      C      0.186300000000     0.740866666667     0.573200000000     0.043308   
C14      C      0.519633333333     0.074200000000     0.073200000000     0.043308   
C14      C      0.519633333333     0.074200000000     0.573200000000     0.043308   
C14      C      0.519633333333     0.407533333333     0.073200000000     0.043308   
C14      C      0.519633333333     0.407533333333     0.573200000000     0.043308   
C14      C      0.519633333333     0.740866666667     0.073200000000     0.043308   
C14      C      0.519633333333     0.740866666667     0.573200000000     0.043308   
C14      C      0.852966666667     0.074200000000     0.073200000000     0.043308   
C14      C      0.852966666667     0.074200000000     0.573200000000     0.043308   
C14      C      0.852966666667     0.407533333333     0.073200000000     0.043308   
C14      C      0.852966666667     0.407533333333     0.573200000000     0.043308   
C14      C      0.852966666667     0.740866666667     0.073200000000     0.043308   
C14      C      0.852966666667     0.740866666667     0.573200000000     0.043308   
C15      C      0.037433333333     0.287200000000     0.467250000000     0.061541   
C15      C      0.037433333333     0.287200000000     0.967250000000     0.061541   
C15      C      0.037433333333     0.620533333333     0.467250000000     0.061541   
C15      C      0.037433333333     0.620533333333     0.967250000000     0.061541   
C15      C      0.037433333333     0.953866666667     0.467250000000     0.061541   
C15      C      0.037433333333     0.953866666667     0.967250000000     0.061541   
C15      C      0.370766666667     0.287200000000     0.467250000000     0.061541   
C15      C      0.370766666667     0.287200000000     0.967250000000     0.061541   
C15      C      0.370766666667     0.620533333333     0.467250000000     0.061541   
C15      C      0.370766666667     0.620533333333     0.967250000000     0.061541   
C15      C      0.370766666667     0.953866666667     0.467250000000     0.061541   
C15      C      0.370766666667     0.953866666667     0.967250000000     0.061541   
C15      C      0.704100000000     0.287200000000     0.467250000000     0.061541   
C15      C      0.704100000000     0.287200000000     0.967250000000     0.061541   
C15      C      0.704100000000     0.620533333333     0.467250000000     0.061541   
C15      C      0.704100000000     0.620533333333     0.967250000000     0.061541   
C15      C      0.704100000000     0.953866666667     0.467250000000     0.061541   
C15      C      0.704100000000     0.953866666667     0.967250000000     0.061541   
C16      C      0.212000000000     0.023100000000     0.227000000000     0.059991   
C16      C      0.212000000000     0.023100000000     0.727000000000     0.059991   
C16      C      0.212000000000     0.356433333333     0.227000000000     0.059991   
C16      C      0.212000000000     0.356433333333     0.727000000000     0.059991   
C16      C      0.212000000000     0.689766666667     0.227000000000     0.059991   
C16      C      0.212000000000     0.689766666667     0.727000000000     0.059991   
C16      C      0.545333333333     0.023100000000     0.227000000000     0.059991   
C16      C      0.545333333333     0.023100000000     0.727000000000     0.059991   
C16      C      0.545333333333     0.356433333333     0.227000000000     0.059991   
C16      C      0.545333333333     0.356433333333     0.727000000000     0.059991   
C16      C      0.545333333333     0.689766666667     0.227000000000     0.059991   
C16      C      0.545333333333     0.689766666667     0.727000000000     0.059991   
C16      C      0.878666666667     0.023100000000     0.227000000000     0.059991   
C16      C      0.878666666667     0.023100000000     0.727000000000     0.059991   
C16      C      0.878666666667     0.356433333333     0.227000000000     0.059991   
C16      C      0.878666666667     0.356433333333     0.727000000000     0.059991   
C16      C      0.878666666667     0.689766666667     0.227000000000     0.059991   
C16      C      0.878666666667     0.689766666667     0.727000000000     0.059991   
C17      C      0.121400000000     0.076833333333     0.151450000000     0.525186   
C17      C      0.121400000000     0.076833333333     0.651450000000     0.525186   
C17      C      0.121400000000     0.410166666667     0.151450000000     0.525186   
C17      C      0.121400000000     0.410166666667     0.651450000000     0.525186   
C17      C      0.121400000000     0.743500000000     0.151450000000     0.525186   
C17      C      0.121400000000     0.743500000000     0.651450000000     0.525186   
C17      C      0.454733333333     0.076833333333     0.151450000000     0.525186   
C17      C      0.454733333333     0.076833333333     0.651450000000     0.525186   
C17      C      0.454733333333     0.410166666667     0.151450000000     0.525186   
C17      C      0.454733333333     0.410166666667     0.651450000000     0.525186   
C17      C      0.454733333333     0.743500000000     0.151450000000     0.525186   
C17      C      0.454733333333     0.743500000000     0.651450000000     0.525186   
C17      C      0.788066666667     0.076833333333     0.151450000000     0.525186   
C17      C      0.788066666667     0.076833333333     0.651450000000     0.525186   
C17      C      0.788066666667     0.410166666667     0.151450000000     0.525186   
C17      C      0.788066666667     0.410166666667     0.651450000000     0.525186   
C17      C      0.788066666667     0.743500000000     0.151450000000     0.525186   
C17      C      0.788066666667     0.743500000000     0.651450000000     0.525186   
C18      C      0.138300000000     0.042400000000     0.161150000000     0.040524   
C18      C      0.138300000000     0.042400000000     0.661150000000     0.040524   
C18      C      0.138300000000     0.375733333333     0.161150000000     0.040524   
C18      C      0.138300000000     0.375733333333     0.661150000000     0.040524   
C18      C      0.138300000000     0.709066666667     0.161150000000     0.040524   
C18      C      0.138300000000     0.709066666667     0.661150000000     0.040524   
C18      C      0.471633333333     0.042400000000     0.161150000000     0.040524   
C18      C      0.471633333333     0.042400000000     0.661150000000     0.040524   
C18      C      0.471633333333     0.375733333333     0.161150000000     0.040524   
C18      C      0.471633333333     0.375733333333     0.661150000000     0.040524   
C18      C      0.471633333333     0.709066666667     0.161150000000     0.040524   
C18      C      0.471633333333     0.709066666667     0.661150000000     0.040524   
C18      C      0.804966666667     0.042400000000     0.161150000000     0.040524   
C18      C      0.804966666667     0.042400000000     0.661150000000     0.040524   
C18      C      0.804966666667     0.375733333333     0.161150000000     0.040524   
C18      C      0.804966666667     0.375733333333     0.661150000000     0.040524   
C18      C      0.804966666667     0.709066666667     0.161150000000     0.040524   
C18      C      0.804966666667     0.709066666667     0.661150000000     0.040524   
C19      C      0.092033333333     0.108233333333     0.266150000000     0.603999   
C19      C      0.092033333333     0.108233333333     0.766150000000     0.603999   
C19      C      0.092033333333     0.441566666667     0.266150000000     0.603999   
C19      C      0.092033333333     0.441566666667     0.766150000000     0.603999   
C19      C      0.092033333333     0.774900000000     0.266150000000     0.603999   
C19      C      0.092033333333     0.774900000000     0.766150000000     0.603999   
C19      C      0.425366666667     0.108233333333     0.266150000000     0.603999   
C19      C      0.425366666667     0.108233333333     0.766150000000     0.603999   
C19      C      0.425366666667     0.441566666667     0.266150000000     0.603999   
C19      C      0.425366666667     0.441566666667     0.766150000000     0.603999   
C19      C      0.425366666667     0.774900000000     0.266150000000     0.603999   
C19      C      0.425366666667     0.774900000000     0.766150000000     0.603999   
C19      C      0.758700000000     0.108233333333     0.266150000000     0.603999   
C19      C      0.758700000000     0.108233333333     0.766150000000     0.603999   
C19      C      0.758700000000     0.441566666667     0.266150000000     0.603999   
C19      C      0.758700000000     0.441566666667     0.766150000000     0.603999   
C19      C      0.758700000000     0.774900000000     0.266150000000     0.603999   
C19      C      0.758700000000     0.774900000000     0.766150000000     0.603999   
C20      C      0.063566666667     0.137000000000     0.246850000000     0.598272   
C20      C      0.063566666667     0.137000000000     0.746850000000     0.598272   
C20      C      0.063566666667     0.470333333333     0.246850000000     0.598272   
C20      C      0.063566666667     0.470333333333     0.746850000000     0.598272   
C20      C      0.063566666667     0.803666666667     0.246850000000     0.598272   
C20      C      0.063566666667     0.803666666667     0.746850000000     0.598272   
C20      C      0.396900000000     0.137000000000     0.246850000000     0.598272   
C20      C      0.396900000000     0.137000000000     0.746850000000     0.598272   
C20      C      0.396900000000     0.470333333333     0.246850000000     0.598272   
C20      C      0.396900000000     0.470333333333     0.746850000000     0.598272   
C20      C      0.396900000000     0.803666666667     0.246850000000     0.598272   
C20      C      0.396900000000     0.803666666667     0.746850000000     0.598272   
C20      C      0.730233333333     0.137000000000     0.246850000000     0.598272   
C20      C      0.730233333333     0.137000000000     0.746850000000     0.598272   
C20      C      0.730233333333     0.470333333333     0.246850000000     0.598272   
C20      C      0.730233333333     0.470333333333     0.746850000000     0.598272   
C20      C      0.730233333333     0.803666666667     0.246850000000     0.598272   
C20      C      0.730233333333     0.803666666667     0.746850000000     0.598272   
C21      C      0.072866666667     0.075433333333     0.243100000000     0.525186   
C21      C      0.072866666667     0.075433333333     0.743100000000     0.525186   
C21      C      0.072866666667     0.408766666667     0.243100000000     0.525186   
C21      C      0.072866666667     0.408766666667     0.743100000000     0.525186   
C21      C      0.072866666667     0.742100000000     0.243100000000     0.525186   
C21      C      0.072866666667     0.742100000000     0.743100000000     0.525186   
C21      C      0.406200000000     0.075433333333     0.243100000000     0.525186   
C21      C      0.406200000000     0.075433333333     0.743100000000     0.525186   
C21      C      0.406200000000     0.408766666667     0.243100000000     0.525186   
C21      C      0.406200000000     0.408766666667     0.743100000000     0.525186   
C21      C      0.406200000000     0.742100000000     0.243100000000     0.525186   
C21      C      0.406200000000     0.742100000000     0.743100000000     0.525186   
C21      C      0.739533333333     0.075433333333     0.243100000000     0.525186   
C21      C      0.739533333333     0.075433333333     0.743100000000     0.525186   
C21      C      0.739533333333     0.408766666667     0.243100000000     0.525186   
C21      C      0.739533333333     0.408766666667     0.743100000000     0.525186   
C21      C      0.739533333333     0.742100000000     0.243100000000     0.525186   
C21      C      0.739533333333     0.742100000000     0.743100000000     0.525186   
C22      C      0.045200000000     0.104200000000     0.222750000000     0.070211   
C22      C      0.045200000000     0.104200000000     0.722750000000     0.070211   
C22      C      0.045200000000     0.437533333333     0.222750000000     0.070211   
C22      C      0.045200000000     0.437533333333     0.722750000000     0.070211   
C22      C      0.045200000000     0.770866666667     0.222750000000     0.070211   
C22      C      0.045200000000     0.770866666667     0.722750000000     0.070211   
C22      C      0.378533333333     0.104200000000     0.222750000000     0.070211   
C22      C      0.378533333333     0.104200000000     0.722750000000     0.070211   
C22      C      0.378533333333     0.437533333333     0.222750000000     0.070211   
C22      C      0.378533333333     0.437533333333     0.722750000000     0.070211   
C22      C      0.378533333333     0.770866666667     0.222750000000     0.070211   
C22      C      0.378533333333     0.770866666667     0.722750000000     0.070211   
C22      C      0.711866666667     0.104200000000     0.222750000000     0.070211   
C22      C      0.711866666667     0.104200000000     0.722750000000     0.070211   
C22      C      0.711866666667     0.437533333333     0.222750000000     0.070211   
C22      C      0.711866666667     0.437533333333     0.722750000000     0.070211   
C22      C      0.711866666667     0.770866666667     0.222750000000     0.070211   
C22      C      0.711866666667     0.770866666667     0.722750000000     0.070211   
C23      C      0.056000000000     0.173066666667     0.248250000000     0.038698   
C23      C      0.056000000000     0.173066666667     0.748250000000     0.038698   
C23      C      0.056000000000     0.506400000000     0.248250000000     0.038698   
C23      C      0.056000000000     0.506400000000     0.748250000000     0.038698   
C23      C      0.056000000000     0.839733333333     0.248250000000     0.038698   
C23      C      0.056000000000     0.839733333333     0.748250000000     0.038698   
C23      C      0.389333333333     0.173066666667     0.248250000000     0.038698   
C23      C      0.389333333333     0.173066666667     0.748250000000     0.038698   
C23      C      0.389333333333     0.506400000000     0.248250000000     0.038698   
C23      C      0.389333333333     0.506400000000     0.748250000000     0.038698   
C23      C      0.389333333333     0.839733333333     0.248250000000     0.038698   
C23      C      0.389333333333     0.839733333333     0.748250000000     0.038698   
C23      C      0.722666666667     0.173066666667     0.248250000000     0.038698   
C23      C      0.722666666667     0.173066666667     0.748250000000     0.038698   
C23      C      0.722666666667     0.506400000000     0.248250000000     0.038698   
C23      C      0.722666666667     0.506400000000     0.748250000000     0.038698   
C23      C      0.722666666667     0.839733333333     0.248250000000     0.038698   
C23      C      0.722666666667     0.839733333333     0.748250000000     0.038698   
C24      C      0.120066666667     0.109233333333     0.290000000000    -0.01111    
C24      C      0.120066666667     0.109233333333     0.790000000000    -0.01111    
C24      C      0.120066666667     0.442566666667     0.290000000000    -0.01111    
C24      C      0.120066666667     0.442566666667     0.790000000000    -0.01111    
C24      C      0.120066666667     0.775900000000     0.290000000000    -0.01111    
C24      C      0.120066666667     0.775900000000     0.790000000000    -0.01111    
C24      C      0.453400000000     0.109233333333     0.290000000000    -0.01111    
C24      C      0.453400000000     0.109233333333     0.790000000000    -0.01111    
C24      C      0.453400000000     0.442566666667     0.290000000000    -0.01111    
C24      C      0.453400000000     0.442566666667     0.790000000000    -0.01111    
C24      C      0.453400000000     0.775900000000     0.290000000000    -0.01111    
C24      C      0.453400000000     0.775900000000     0.790000000000    -0.01111    
C24      C      0.786733333333     0.109233333333     0.290000000000    -0.01111    
C24      C      0.786733333333     0.109233333333     0.790000000000    -0.01111    
C24      C      0.786733333333     0.442566666667     0.290000000000    -0.01111    
C24      C      0.786733333333     0.442566666667     0.790000000000    -0.01111    
C24      C      0.786733333333     0.775900000000     0.290000000000    -0.01111    
C24      C      0.786733333333     0.775900000000     0.790000000000    -0.01111    
C25      C      0.055900000000     0.079800000000     0.362000000000     0.061545   
C25      C      0.055900000000     0.079800000000     0.862000000000     0.061545   
C25      C      0.055900000000     0.413133333333     0.362000000000     0.061545   
C25      C      0.055900000000     0.413133333333     0.862000000000     0.061545   
C25      C      0.055900000000     0.746466666667     0.362000000000     0.061545   
C25      C      0.055900000000     0.746466666667     0.862000000000     0.061545   
C25      C      0.389233333333     0.079800000000     0.362000000000     0.061545   
C25      C      0.389233333333     0.079800000000     0.862000000000     0.061545   
C25      C      0.389233333333     0.413133333333     0.362000000000     0.061545   
C25      C      0.389233333333     0.413133333333     0.862000000000     0.061545   
C25      C      0.389233333333     0.746466666667     0.362000000000     0.061545   
C25      C      0.389233333333     0.746466666667     0.862000000000     0.061545   
C25      C      0.722566666667     0.079800000000     0.362000000000     0.061545   
C25      C      0.722566666667     0.079800000000     0.862000000000     0.061545   
C25      C      0.722566666667     0.413133333333     0.362000000000     0.061545   
C25      C      0.722566666667     0.413133333333     0.862000000000     0.061545   
C25      C      0.722566666667     0.746466666667     0.362000000000     0.061545   
C25      C      0.722566666667     0.746466666667     0.862000000000     0.061545   
C26      C      0.070166666667     0.045100000000     0.373000000000     0.043314   
C26      C      0.070166666667     0.045100000000     0.873000000000     0.043314   
C26      C      0.070166666667     0.378433333333     0.373000000000     0.043314   
C26      C      0.070166666667     0.378433333333     0.873000000000     0.043314   
C26      C      0.070166666667     0.711766666667     0.373000000000     0.043314   
C26      C      0.070166666667     0.711766666667     0.873000000000     0.043314   
C26      C      0.403500000000     0.045100000000     0.373000000000     0.043314   
C26      C      0.403500000000     0.045100000000     0.873000000000     0.043314   
C26      C      0.403500000000     0.378433333333     0.373000000000     0.043314   
C26      C      0.403500000000     0.378433333333     0.873000000000     0.043314   
C26      C      0.403500000000     0.711766666667     0.373000000000     0.043314   
C26      C      0.403500000000     0.711766666667     0.873000000000     0.043314   
C26      C      0.736833333333     0.045100000000     0.373000000000     0.043314   
C26      C      0.736833333333     0.045100000000     0.873000000000     0.043314   
C26      C      0.736833333333     0.378433333333     0.373000000000     0.043314   
C26      C      0.736833333333     0.378433333333     0.873000000000     0.043314   
C26      C      0.736833333333     0.711766666667     0.373000000000     0.043314   
C26      C      0.736833333333     0.711766666667     0.873000000000     0.043314   
C27      C      0.029500000000     0.045200000000     0.333600000000     0.558737   
C27      C      0.029500000000     0.045200000000     0.833600000000     0.558737   
C27      C      0.029500000000     0.378533333333     0.333600000000     0.558737   
C27      C      0.029500000000     0.378533333333     0.833600000000     0.558737   
C27      C      0.029500000000     0.711866666667     0.333600000000     0.558737   
C27      C      0.029500000000     0.711866666667     0.833600000000     0.558737   
C27      C      0.362833333333     0.045200000000     0.333600000000     0.558737   
C27      C      0.362833333333     0.045200000000     0.833600000000     0.558737   
C27      C      0.362833333333     0.378533333333     0.333600000000     0.558737   
C27      C      0.362833333333     0.378533333333     0.833600000000     0.558737   
C27      C      0.362833333333     0.711866666667     0.333600000000     0.558737   
C27      C      0.362833333333     0.711866666667     0.833600000000     0.558737   
C27      C      0.696166666667     0.045200000000     0.333600000000     0.558737   
C27      C      0.696166666667     0.045200000000     0.833600000000     0.558737   
C27      C      0.696166666667     0.378533333333     0.333600000000     0.558737   
C27      C      0.696166666667     0.378533333333     0.833600000000     0.558737   
C27      C      0.696166666667     0.711866666667     0.333600000000     0.558737   
C27      C      0.696166666667     0.711866666667     0.833600000000     0.558737   
C28      C      0.014433333333     0.079900000000     0.323450000000     0.605367   
C28      C      0.014433333333     0.079900000000     0.823450000000     0.605367   
C28      C      0.014433333333     0.413233333333     0.323450000000     0.605367   
C28      C      0.014433333333     0.413233333333     0.823450000000     0.605367   
C28      C      0.014433333333     0.746566666667     0.323450000000     0.605367   
C28      C      0.014433333333     0.746566666667     0.823450000000     0.605367   
C28      C      0.347766666667     0.079900000000     0.323450000000     0.605367   
C28      C      0.347766666667     0.079900000000     0.823450000000     0.605367   
C28      C      0.347766666667     0.413233333333     0.323450000000     0.605367   
C28      C      0.347766666667     0.413233333333     0.823450000000     0.605367   
C28      C      0.347766666667     0.746566666667     0.323450000000     0.605367   
C28      C      0.347766666667     0.746566666667     0.823450000000     0.605367   
C28      C      0.681100000000     0.079900000000     0.323450000000     0.605367   
C28      C      0.681100000000     0.079900000000     0.823450000000     0.605367   
C28      C      0.681100000000     0.413233333333     0.323450000000     0.605367   
C28      C      0.681100000000     0.413233333333     0.823450000000     0.605367   
C28      C      0.681100000000     0.746566666667     0.323450000000     0.605367   
C28      C      0.681100000000     0.746566666667     0.823450000000     0.605367   
C29      C      0.071633333333     0.099366666667     0.376400000000     0.552326   
C29      C      0.071633333333     0.099366666667     0.876400000000     0.552326   
C29      C      0.071633333333     0.432700000000     0.376400000000     0.552326   
C29      C      0.071633333333     0.432700000000     0.876400000000     0.552326   
C29      C      0.071633333333     0.766033333333     0.376400000000     0.552326   
C29      C      0.071633333333     0.766033333333     0.876400000000     0.552326   
C29      C      0.404966666667     0.099366666667     0.376400000000     0.552326   
C29      C      0.404966666667     0.099366666667     0.876400000000     0.552326   
C29      C      0.404966666667     0.432700000000     0.376400000000     0.552326   
C29      C      0.404966666667     0.432700000000     0.876400000000     0.552326   
C29      C      0.404966666667     0.766033333333     0.376400000000     0.552326   
C29      C      0.404966666667     0.766033333333     0.876400000000     0.552326   
C29      C      0.738300000000     0.099366666667     0.376400000000     0.552326   
C29      C      0.738300000000     0.099366666667     0.876400000000     0.552326   
C29      C      0.738300000000     0.432700000000     0.376400000000     0.552326   
C29      C      0.738300000000     0.432700000000     0.876400000000     0.552326   
C29      C      0.738300000000     0.766033333333     0.376400000000     0.552326   
C29      C      0.738300000000     0.766033333333     0.876400000000     0.552326   
C30      C      0.101866666667     0.023366666667     0.402200000000     0.546014   
C30      C      0.101866666667     0.023366666667     0.902200000000     0.546014   
C30      C      0.101866666667     0.356700000000     0.402200000000     0.546014   
C30      C      0.101866666667     0.356700000000     0.902200000000     0.546014   
C30      C      0.101866666667     0.690033333333     0.402200000000     0.546014   
C30      C      0.101866666667     0.690033333333     0.902200000000     0.546014   
C30      C      0.435200000000     0.023366666667     0.402200000000     0.546014   
C30      C      0.435200000000     0.023366666667     0.902200000000     0.546014   
C30      C      0.435200000000     0.356700000000     0.402200000000     0.546014   
C30      C      0.435200000000     0.356700000000     0.902200000000     0.546014   
C30      C      0.435200000000     0.690033333333     0.402200000000     0.546014   
C30      C      0.435200000000     0.690033333333     0.902200000000     0.546014   
C30      C      0.768533333333     0.023366666667     0.402200000000     0.546014   
C30      C      0.768533333333     0.023366666667     0.902200000000     0.546014   
C30      C      0.768533333333     0.356700000000     0.402200000000     0.546014   
C30      C      0.768533333333     0.356700000000     0.902200000000     0.546014   
C30      C      0.768533333333     0.690033333333     0.402200000000     0.546014   
C30      C      0.768533333333     0.690033333333     0.902200000000     0.546014   
C31      C      0.162033333333     0.079133333333     0.189800000000     0.603998   
C31      C      0.162033333333     0.079133333333     0.689800000000     0.603998   
C31      C      0.162033333333     0.412466666667     0.189800000000     0.603998   
C31      C      0.162033333333     0.412466666667     0.689800000000     0.603998   
C31      C      0.162033333333     0.745800000000     0.189800000000     0.603998   
C31      C      0.162033333333     0.745800000000     0.689800000000     0.603998   
C31      C      0.495366666667     0.079133333333     0.189800000000     0.603998   
C31      C      0.495366666667     0.079133333333     0.689800000000     0.603998   
C31      C      0.495366666667     0.412466666667     0.189800000000     0.603998   
C31      C      0.495366666667     0.412466666667     0.689800000000     0.603998   
C31      C      0.495366666667     0.745800000000     0.189800000000     0.603998   
C31      C      0.495366666667     0.745800000000     0.689800000000     0.603998   
C31      C      0.828700000000     0.079133333333     0.189800000000     0.603998   
C31      C      0.828700000000     0.079133333333     0.689800000000     0.603998   
C31      C      0.828700000000     0.412466666667     0.189800000000     0.603998   
C31      C      0.828700000000     0.412466666667     0.689800000000     0.603998   
C31      C      0.828700000000     0.745800000000     0.189800000000     0.603998   
C31      C      0.828700000000     0.745800000000     0.689800000000     0.603998   
C32      C      0.178833333333     0.044000000000     0.199650000000     0.063164   
C32      C      0.178833333333     0.044000000000     0.699650000000     0.063164   
C32      C      0.178833333333     0.377333333333     0.199650000000     0.063164   
C32      C      0.178833333333     0.377333333333     0.699650000000     0.063164   
C32      C      0.178833333333     0.710666666667     0.199650000000     0.063164   
C32      C      0.178833333333     0.710666666667     0.699650000000     0.063164   
C32      C      0.512166666667     0.044000000000     0.199650000000     0.063164   
C32      C      0.512166666667     0.044000000000     0.699650000000     0.063164   
C32      C      0.512166666667     0.377333333333     0.199650000000     0.063164   
C32      C      0.512166666667     0.377333333333     0.699650000000     0.063164   
C32      C      0.512166666667     0.710666666667     0.199650000000     0.063164   
C32      C      0.512166666667     0.710666666667     0.699650000000     0.063164   
C32      C      0.845500000000     0.044000000000     0.199650000000     0.063164   
C32      C      0.845500000000     0.044000000000     0.699650000000     0.063164   
C32      C      0.845500000000     0.377333333333     0.199650000000     0.063164   
C32      C      0.845500000000     0.377333333333     0.699650000000     0.063164   
C32      C      0.845500000000     0.710666666667     0.199650000000     0.063164   
C32      C      0.845500000000     0.710666666667     0.699650000000     0.063164   
C33      C      0.159933333333     0.102633333333     0.051300000000     0.049541   
C33      C      0.159933333333     0.102633333333     0.551300000000     0.049541   
C33      C      0.159933333333     0.435966666667     0.051300000000     0.049541   
C33      C      0.159933333333     0.435966666667     0.551300000000     0.049541   
C33      C      0.159933333333     0.769300000000     0.051300000000     0.049541   
C33      C      0.159933333333     0.769300000000     0.551300000000     0.049541   
C33      C      0.493266666667     0.102633333333     0.051300000000     0.049541   
C33      C      0.493266666667     0.102633333333     0.551300000000     0.049541   
C33      C      0.493266666667     0.435966666667     0.051300000000     0.049541   
C33      C      0.493266666667     0.435966666667     0.551300000000     0.049541   
C33      C      0.493266666667     0.769300000000     0.051300000000     0.049541   
C33      C      0.493266666667     0.769300000000     0.551300000000     0.049541   
C33      C      0.826600000000     0.102633333333     0.051300000000     0.049541   
C33      C      0.826600000000     0.102633333333     0.551300000000     0.049541   
C33      C      0.826600000000     0.435966666667     0.051300000000     0.049541   
C33      C      0.826600000000     0.435966666667     0.551300000000     0.049541   
C33      C      0.826600000000     0.769300000000     0.051300000000     0.049541   
C33      C      0.826600000000     0.769300000000     0.551300000000     0.049541   
C34      C      0.175733333333     0.100200000000     0.203800000000     0.043291   
C34      C      0.175733333333     0.100200000000     0.703800000000     0.043291   
C34      C      0.175733333333     0.433533333333     0.203800000000     0.043291   
C34      C      0.175733333333     0.433533333333     0.703800000000     0.043291   
C34      C      0.175733333333     0.766866666667     0.203800000000     0.043291   
C34      C      0.175733333333     0.766866666667     0.703800000000     0.043291   
C34      C      0.509066666667     0.100200000000     0.203800000000     0.043291   
C34      C      0.509066666667     0.100200000000     0.703800000000     0.043291   
C34      C      0.509066666667     0.433533333333     0.203800000000     0.043291   
C34      C      0.509066666667     0.433533333333     0.703800000000     0.043291   
C34      C      0.509066666667     0.766866666667     0.203800000000     0.043291   
C34      C      0.509066666667     0.766866666667     0.703800000000     0.043291   
C34      C      0.842400000000     0.100200000000     0.203800000000     0.043291   
C34      C      0.842400000000     0.100200000000     0.703800000000     0.043291   
C34      C      0.842400000000     0.433533333333     0.203800000000     0.043291   
C34      C      0.842400000000     0.433533333333     0.703800000000     0.043291   
C34      C      0.842400000000     0.766866666667     0.203800000000     0.043291   
C34      C      0.842400000000     0.766866666667     0.703800000000     0.043291   
C35      C      0.205500000000     0.106600000000     0.097050000000     0.597514   
C35      C      0.205500000000     0.106600000000     0.597050000000     0.597514   
C35      C      0.205500000000     0.439933333333     0.097050000000     0.597514   
C35      C      0.205500000000     0.439933333333     0.597050000000     0.597514   
C35      C      0.205500000000     0.773266666667     0.097050000000     0.597514   
C35      C      0.205500000000     0.773266666667     0.597050000000     0.597514   
C35      C      0.538833333333     0.106600000000     0.097050000000     0.597514   
C35      C      0.538833333333     0.106600000000     0.597050000000     0.597514   
C35      C      0.538833333333     0.439933333333     0.097050000000     0.597514   
C35      C      0.538833333333     0.439933333333     0.597050000000     0.597514   
C35      C      0.538833333333     0.773266666667     0.097050000000     0.597514   
C35      C      0.538833333333     0.773266666667     0.597050000000     0.597514   
C35      C      0.872166666667     0.106600000000     0.097050000000     0.597514   
C35      C      0.872166666667     0.106600000000     0.597050000000     0.597514   
C35      C      0.872166666667     0.439933333333     0.097050000000     0.597514   
C35      C      0.872166666667     0.439933333333     0.597050000000     0.597514   
C35      C      0.872166666667     0.773266666667     0.097050000000     0.597514   
C35      C      0.872166666667     0.773266666667     0.597050000000     0.597514   
C36      C      0.232966666667     0.107300000000     0.121650000000     0.597951   
C36      C      0.232966666667     0.107300000000     0.621650000000     0.597951   
C36      C      0.232966666667     0.440633333333     0.121650000000     0.597951   
C36      C      0.232966666667     0.440633333333     0.621650000000     0.597951   
C36      C      0.232966666667     0.773966666667     0.121650000000     0.597951   
C36      C      0.232966666667     0.773966666667     0.621650000000     0.597951   
C36      C      0.566300000000     0.107300000000     0.121650000000     0.597951   
C36      C      0.566300000000     0.107300000000     0.621650000000     0.597951   
C36      C      0.566300000000     0.440633333333     0.121650000000     0.597951   
C36      C      0.566300000000     0.440633333333     0.621650000000     0.597951   
C36      C      0.566300000000     0.773966666667     0.121650000000     0.597951   
C36      C      0.566300000000     0.773966666667     0.621650000000     0.597951   
C36      C      0.899633333333     0.107300000000     0.121650000000     0.597951   
C36      C      0.899633333333     0.107300000000     0.621650000000     0.597951   
C36      C      0.899633333333     0.440633333333     0.121650000000     0.597951   
C36      C      0.899633333333     0.440633333333     0.621650000000     0.597951   
C36      C      0.899633333333     0.773966666667     0.121650000000     0.597951   
C36      C      0.899633333333     0.773966666667     0.621650000000     0.597951   
C37      C      0.328900000000     0.025400000000     0.059700000000     0.058134   
C37      C      0.328900000000     0.025400000000     0.559700000000     0.058134   
C37      C      0.328900000000     0.358733333333     0.059700000000     0.058134   
C37      C      0.328900000000     0.358733333333     0.559700000000     0.058134   
C37      C      0.328900000000     0.692066666667     0.059700000000     0.058134   
C37      C      0.328900000000     0.692066666667     0.559700000000     0.058134   
C37      C      0.662233333333     0.025400000000     0.059700000000     0.058134   
C37      C      0.662233333333     0.025400000000     0.559700000000     0.058134   
C37      C      0.662233333333     0.358733333333     0.059700000000     0.058134   
C37      C      0.662233333333     0.358733333333     0.559700000000     0.058134   
C37      C      0.662233333333     0.692066666667     0.059700000000     0.058134   
C37      C      0.662233333333     0.692066666667     0.559700000000     0.058134   
C37      C      0.995566666667     0.025400000000     0.059700000000     0.058134   
C37      C      0.995566666667     0.025400000000     0.559700000000     0.058134   
C37      C      0.995566666667     0.358733333333     0.059700000000     0.058134   
C37      C      0.995566666667     0.358733333333     0.559700000000     0.058134   
C37      C      0.995566666667     0.692066666667     0.059700000000     0.058134   
C37      C      0.995566666667     0.692066666667     0.559700000000     0.058134   
C38      C      0.157600000000     0.233133333333     0.296200000000     0.035041   
C38      C      0.157600000000     0.233133333333     0.796200000000     0.035041   
C38      C      0.157600000000     0.566466666667     0.296200000000     0.035041   
C38      C      0.157600000000     0.566466666667     0.796200000000     0.035041   
C38      C      0.157600000000     0.899800000000     0.296200000000     0.035041   
C38      C      0.157600000000     0.899800000000     0.796200000000     0.035041   
C38      C      0.490933333333     0.233133333333     0.296200000000     0.035041   
C38      C      0.490933333333     0.233133333333     0.796200000000     0.035041   
C38      C      0.490933333333     0.566466666667     0.296200000000     0.035041   
C38      C      0.490933333333     0.566466666667     0.796200000000     0.035041   
C38      C      0.490933333333     0.899800000000     0.296200000000     0.035041   
C38      C      0.490933333333     0.899800000000     0.796200000000     0.035041   
C38      C      0.824266666667     0.233133333333     0.296200000000     0.035041   
C38      C      0.824266666667     0.233133333333     0.796200000000     0.035041   
C38      C      0.824266666667     0.566466666667     0.296200000000     0.035041   
C38      C      0.824266666667     0.566466666667     0.796200000000     0.035041   
C38      C      0.824266666667     0.899800000000     0.296200000000     0.035041   
C38      C      0.824266666667     0.899800000000     0.796200000000     0.035041   
C39      C      0.177866666667     0.135666666667     0.075700000000     0.002903   
C39      C      0.177866666667     0.135666666667     0.575700000000     0.002903   
C39      C      0.177866666667     0.469000000000     0.075700000000     0.002903   
C39      C      0.177866666667     0.469000000000     0.575700000000     0.002903   
C39      C      0.177866666667     0.802333333333     0.075700000000     0.002903   
C39      C      0.177866666667     0.802333333333     0.575700000000     0.002903   
C39      C      0.511200000000     0.135666666667     0.075700000000     0.002903   
C39      C      0.511200000000     0.135666666667     0.575700000000     0.002903   
C39      C      0.511200000000     0.469000000000     0.075700000000     0.002903   
C39      C      0.511200000000     0.469000000000     0.575700000000     0.002903   
C39      C      0.511200000000     0.802333333333     0.075700000000     0.002903   
C39      C      0.511200000000     0.802333333333     0.575700000000     0.002903   
C39      C      0.844533333333     0.135666666667     0.075700000000     0.002903   
C39      C      0.844533333333     0.135666666667     0.575700000000     0.002903   
C39      C      0.844533333333     0.469000000000     0.075700000000     0.002903   
C39      C      0.844533333333     0.469000000000     0.575700000000     0.002903   
C39      C      0.844533333333     0.802333333333     0.075700000000     0.002903   
C39      C      0.844533333333     0.802333333333     0.575700000000     0.002903   
C40      C      0.195033333333     0.290933333333     0.338850000000     0.059042   
C40      C      0.195033333333     0.290933333333     0.838850000000     0.059042   
C40      C      0.195033333333     0.624266666667     0.338850000000     0.059042   
C40      C      0.195033333333     0.624266666667     0.838850000000     0.059042   
C40      C      0.195033333333     0.957600000000     0.338850000000     0.059042   
C40      C      0.195033333333     0.957600000000     0.838850000000     0.059042   
C40      C      0.528366666667     0.290933333333     0.338850000000     0.059042   
C40      C      0.528366666667     0.290933333333     0.838850000000     0.059042   
C40      C      0.528366666667     0.624266666667     0.338850000000     0.059042   
C40      C      0.528366666667     0.624266666667     0.838850000000     0.059042   
C40      C      0.528366666667     0.957600000000     0.338850000000     0.059042   
C40      C      0.528366666667     0.957600000000     0.838850000000     0.059042   
C40      C      0.861700000000     0.290933333333     0.338850000000     0.059042   
C40      C      0.861700000000     0.290933333333     0.838850000000     0.059042   
C40      C      0.861700000000     0.624266666667     0.338850000000     0.059042   
C40      C      0.861700000000     0.624266666667     0.838850000000     0.059042   
C40      C      0.861700000000     0.957600000000     0.338850000000     0.059042   
C40      C      0.861700000000     0.957600000000     0.838850000000     0.059042   
C41      C      0.211933333333     0.256500000000     0.348550000000     0.015184   
C41      C      0.211933333333     0.256500000000     0.848550000000     0.015184   
C41      C      0.211933333333     0.589833333333     0.348550000000     0.015184   
C41      C      0.211933333333     0.589833333333     0.848550000000     0.015184   
C41      C      0.211933333333     0.923166666667     0.348550000000     0.015184   
C41      C      0.211933333333     0.923166666667     0.848550000000     0.015184   
C41      C      0.545266666667     0.256500000000     0.348550000000     0.015184   
C41      C      0.545266666667     0.256500000000     0.848550000000     0.015184   
C41      C      0.545266666667     0.589833333333     0.348550000000     0.015184   
C41      C      0.545266666667     0.589833333333     0.848550000000     0.015184   
C41      C      0.545266666667     0.923166666667     0.348550000000     0.015184   
C41      C      0.545266666667     0.923166666667     0.848550000000     0.015184   
C41      C      0.878600000000     0.256500000000     0.348550000000     0.015184   
C41      C      0.878600000000     0.256500000000     0.848550000000     0.015184   
C41      C      0.878600000000     0.589833333333     0.348550000000     0.015184   
C41      C      0.878600000000     0.589833333333     0.848550000000     0.015184   
C41      C      0.878600000000     0.923166666667     0.348550000000     0.015184   
C41      C      0.878600000000     0.923166666667     0.848550000000     0.015184   
C42      C      0.154500000000     0.289333333333     0.300350000000     0.079895   
C42      C      0.154500000000     0.289333333333     0.800350000000     0.079895   
C42      C      0.154500000000     0.622666666667     0.300350000000     0.079895   
C42      C      0.154500000000     0.622666666667     0.800350000000     0.079895   
C42      C      0.154500000000     0.956000000000     0.300350000000     0.079895   
C42      C      0.154500000000     0.956000000000     0.800350000000     0.079895   
C42      C      0.487833333333     0.289333333333     0.300350000000     0.079895   
C42      C      0.487833333333     0.289333333333     0.800350000000     0.079895   
C42      C      0.487833333333     0.622666666667     0.300350000000     0.079895   
C42      C      0.487833333333     0.622666666667     0.800350000000     0.079895   
C42      C      0.487833333333     0.956000000000     0.300350000000     0.079895   
C42      C      0.487833333333     0.956000000000     0.800350000000     0.079895   
C42      C      0.821166666667     0.289333333333     0.300350000000     0.079895   
C42      C      0.821166666667     0.289333333333     0.800350000000     0.079895   
C42      C      0.821166666667     0.622666666667     0.300350000000     0.079895   
C42      C      0.821166666667     0.622666666667     0.800350000000     0.079895   
C42      C      0.821166666667     0.956000000000     0.300350000000     0.079895   
C42      C      0.821166666667     0.956000000000     0.800350000000     0.079895   
C43      C      0.171300000000     0.254200000000     0.310200000000     0.603975   
C43      C      0.171300000000     0.254200000000     0.810200000000     0.603975   
C43      C      0.171300000000     0.587533333333     0.310200000000     0.603975   
C43      C      0.171300000000     0.587533333333     0.810200000000     0.603975   
C43      C      0.171300000000     0.920866666667     0.310200000000     0.603975   
C43      C      0.171300000000     0.920866666667     0.810200000000     0.603975   
C43      C      0.504633333333     0.254200000000     0.310200000000     0.603975   
C43      C      0.504633333333     0.254200000000     0.810200000000     0.603975   
C43      C      0.504633333333     0.587533333333     0.310200000000     0.603975   
C43      C      0.504633333333     0.587533333333     0.810200000000     0.603975   
C43      C      0.504633333333     0.920866666667     0.310200000000     0.603975   
C43      C      0.504633333333     0.920866666667     0.810200000000     0.603975   
C43      C      0.837966666667     0.254200000000     0.310200000000     0.603975   
C43      C      0.837966666667     0.254200000000     0.810200000000     0.603975   
C43      C      0.837966666667     0.587533333333     0.310200000000     0.603975   
C43      C      0.837966666667     0.587533333333     0.810200000000     0.603975   
C43      C      0.837966666667     0.920866666667     0.310200000000     0.603975   
C43      C      0.837966666667     0.920866666667     0.810200000000     0.603975   
C44      C      0.231466666667     0.309966666667     0.097800000000     0.070214   
C44      C      0.231466666667     0.309966666667     0.597800000000     0.070214   
C44      C      0.231466666667     0.643300000000     0.097800000000     0.070214   
C44      C      0.231466666667     0.643300000000     0.597800000000     0.070214   
C44      C      0.231466666667     0.976633333333     0.097800000000     0.070214   
C44      C      0.231466666667     0.976633333333     0.597800000000     0.070214   
C44      C      0.564800000000     0.309966666667     0.097800000000     0.070214   
C44      C      0.564800000000     0.309966666667     0.597800000000     0.070214   
C44      C      0.564800000000     0.643300000000     0.097800000000     0.070214   
C44      C      0.564800000000     0.643300000000     0.597800000000     0.070214   
C44      C      0.564800000000     0.976633333333     0.097800000000     0.070214   
C44      C      0.564800000000     0.976633333333     0.597800000000     0.070214   
C44      C      0.898133333333     0.309966666667     0.097800000000     0.070214   
C44      C      0.898133333333     0.309966666667     0.597800000000     0.070214   
C44      C      0.898133333333     0.643300000000     0.097800000000     0.070214   
C44      C      0.898133333333     0.643300000000     0.597800000000     0.070214   
C44      C      0.898133333333     0.976633333333     0.097800000000     0.070214   
C44      C      0.898133333333     0.976633333333     0.597800000000     0.070214   
C45      C      0.261700000000     0.233966666667     0.123600000000     0.070433   
C45      C      0.261700000000     0.233966666667     0.623600000000     0.070433   
C45      C      0.261700000000     0.567300000000     0.123600000000     0.070433   
C45      C      0.261700000000     0.567300000000     0.623600000000     0.070433   
C45      C      0.261700000000     0.900633333333     0.123600000000     0.070433   
C45      C      0.261700000000     0.900633333333     0.623600000000     0.070433   
C45      C      0.595033333333     0.233966666667     0.123600000000     0.070433   
C45      C      0.595033333333     0.233966666667     0.623600000000     0.070433   
C45      C      0.595033333333     0.567300000000     0.123600000000     0.070433   
C45      C      0.595033333333     0.567300000000     0.623600000000     0.070433   
C45      C      0.595033333333     0.900633333333     0.123600000000     0.070433   
C45      C      0.595033333333     0.900633333333     0.623600000000     0.070433   
C45      C      0.928366666667     0.233966666667     0.123600000000     0.070433   
C45      C      0.928366666667     0.233966666667     0.623600000000     0.070433   
C45      C      0.928366666667     0.567300000000     0.123600000000     0.070433   
C45      C      0.928366666667     0.567300000000     0.623600000000     0.070433   
C45      C      0.928366666667     0.900633333333     0.123600000000     0.070433   
C45      C      0.928366666667     0.900633333333     0.623600000000     0.070433   
C46      C      0.121333333333     0.310233333333     0.273000000000     0.040528   
C46      C      0.121333333333     0.310233333333     0.773000000000     0.040528   
C46      C      0.121333333333     0.643566666667     0.273000000000     0.040528   
C46      C      0.121333333333     0.643566666667     0.773000000000     0.040528   
C46      C      0.121333333333     0.976900000000     0.273000000000     0.040528   
C46      C      0.121333333333     0.976900000000     0.773000000000     0.040528   
C46      C      0.454666666667     0.310233333333     0.273000000000     0.040528   
C46      C      0.454666666667     0.310233333333     0.773000000000     0.040528   
C46      C      0.454666666667     0.643566666667     0.273000000000     0.040528   
C46      C      0.454666666667     0.643566666667     0.773000000000     0.040528   
C46      C      0.454666666667     0.976900000000     0.273000000000     0.040528   
C46      C      0.454666666667     0.976900000000     0.773000000000     0.040528   
C46      C      0.788000000000     0.310233333333     0.273000000000     0.040528   
C46      C      0.788000000000     0.310233333333     0.773000000000     0.040528   
C46      C      0.788000000000     0.643566666667     0.273000000000     0.040528   
C46      C      0.788000000000     0.643566666667     0.773000000000     0.040528   
C46      C      0.788000000000     0.976900000000     0.273000000000     0.040528   
C46      C      0.788000000000     0.976900000000     0.773000000000     0.040528   
C47      C      0.162266666667     0.161666666667     0.424750000000     0.040767   
C47      C      0.162266666667     0.161666666667     0.924750000000     0.040767   
C47      C      0.162266666667     0.495000000000     0.424750000000     0.040767   
C47      C      0.162266666667     0.495000000000     0.924750000000     0.040767   
C47      C      0.162266666667     0.828333333333     0.424750000000     0.040767   
C47      C      0.162266666667     0.828333333333     0.924750000000     0.040767   
C47      C      0.495600000000     0.161666666667     0.424750000000     0.040767   
C47      C      0.495600000000     0.161666666667     0.924750000000     0.040767   
C47      C      0.495600000000     0.495000000000     0.424750000000     0.040767   
C47      C      0.495600000000     0.495000000000     0.924750000000     0.040767   
C47      C      0.495600000000     0.828333333333     0.424750000000     0.040767   
C47      C      0.495600000000     0.828333333333     0.924750000000     0.040767   
C47      C      0.828933333333     0.161666666667     0.424750000000     0.040767   
C47      C      0.828933333333     0.161666666667     0.924750000000     0.040767   
C47      C      0.828933333333     0.495000000000     0.424750000000     0.040767   
C47      C      0.828933333333     0.495000000000     0.924750000000     0.040767   
C47      C      0.828933333333     0.828333333333     0.424750000000     0.040767   
C47      C      0.828933333333     0.828333333333     0.924750000000     0.040767   
C48      C      0.100366666667     0.226033333333     0.378350000000     0.05249    
C48      C      0.100366666667     0.226033333333     0.878350000000     0.05249    
C48      C      0.100366666667     0.559366666667     0.378350000000     0.05249    
C48      C      0.100366666667     0.559366666667     0.878350000000     0.05249    
C48      C      0.100366666667     0.892700000000     0.378350000000     0.05249    
C48      C      0.100366666667     0.892700000000     0.878350000000     0.05249    
C48      C      0.433700000000     0.226033333333     0.378350000000     0.05249    
C48      C      0.433700000000     0.226033333333     0.878350000000     0.05249    
C48      C      0.433700000000     0.559366666667     0.378350000000     0.05249    
C48      C      0.433700000000     0.559366666667     0.878350000000     0.05249    
C48      C      0.433700000000     0.892700000000     0.378350000000     0.05249    
C48      C      0.433700000000     0.892700000000     0.878350000000     0.05249    
C48      C      0.767033333333     0.226033333333     0.378350000000     0.05249    
C48      C      0.767033333333     0.226033333333     0.878350000000     0.05249    
C48      C      0.767033333333     0.559366666667     0.378350000000     0.05249    
C48      C      0.767033333333     0.559366666667     0.878350000000     0.05249    
C48      C      0.767033333333     0.892700000000     0.378350000000     0.05249    
C48      C      0.767033333333     0.892700000000     0.878350000000     0.05249    
C49      C      0.303833333333     0.288133333333     0.166400000000     0.036884   
C49      C      0.303833333333     0.288133333333     0.666400000000     0.036884   
C49      C      0.303833333333     0.621466666667     0.166400000000     0.036884   
C49      C      0.303833333333     0.621466666667     0.666400000000     0.036884   
C49      C      0.303833333333     0.954800000000     0.166400000000     0.036884   
C49      C      0.303833333333     0.954800000000     0.666400000000     0.036884   
C49      C      0.637166666667     0.288133333333     0.166400000000     0.036884   
C49      C      0.637166666667     0.288133333333     0.666400000000     0.036884   
C49      C      0.637166666667     0.621466666667     0.166400000000     0.036884   
C49      C      0.637166666667     0.621466666667     0.666400000000     0.036884   
C49      C      0.637166666667     0.954800000000     0.166400000000     0.036884   
C49      C      0.637166666667     0.954800000000     0.666400000000     0.036884   
C49      C      0.970500000000     0.288133333333     0.166400000000     0.036884   
C49      C      0.970500000000     0.288133333333     0.666400000000     0.036884   
C49      C      0.970500000000     0.621466666667     0.166400000000     0.036884   
C49      C      0.970500000000     0.621466666667     0.666400000000     0.036884   
C49      C      0.970500000000     0.954800000000     0.166400000000     0.036884   
C49      C      0.970500000000     0.954800000000     0.666400000000     0.036884   
C50      C      0.263166666667     0.288233333333     0.127000000000     0.031773   
C50      C      0.263166666667     0.288233333333     0.627000000000     0.031773   
C50      C      0.263166666667     0.621566666667     0.127000000000     0.031773   
C50      C      0.263166666667     0.621566666667     0.627000000000     0.031773   
C50      C      0.263166666667     0.954900000000     0.127000000000     0.031773   
C50      C      0.263166666667     0.954900000000     0.627000000000     0.031773   
C50      C      0.596500000000     0.288233333333     0.127000000000     0.031773   
C50      C      0.596500000000     0.288233333333     0.627000000000     0.031773   
C50      C      0.596500000000     0.621566666667     0.127000000000     0.031773   
C50      C      0.596500000000     0.621566666667     0.627000000000     0.031773   
C50      C      0.596500000000     0.954900000000     0.127000000000     0.031773   
C50      C      0.596500000000     0.954900000000     0.627000000000     0.031773   
C50      C      0.929833333333     0.288233333333     0.127000000000     0.031773   
C50      C      0.929833333333     0.288233333333     0.627000000000     0.031773   
C50      C      0.929833333333     0.621566666667     0.127000000000     0.031773   
C50      C      0.929833333333     0.621566666667     0.627000000000     0.031773   
C50      C      0.929833333333     0.954900000000     0.127000000000     0.031773   
C50      C      0.929833333333     0.954900000000     0.627000000000     0.031773   
C51      C      0.277433333333     0.253533333333     0.138000000000     0.606474   
C51      C      0.277433333333     0.253533333333     0.638000000000     0.606474   
C51      C      0.277433333333     0.586866666667     0.138000000000     0.606474   
C51      C      0.277433333333     0.586866666667     0.638000000000     0.606474   
C51      C      0.277433333333     0.920200000000     0.138000000000     0.606474   
C51      C      0.277433333333     0.920200000000     0.638000000000     0.606474   
C51      C      0.610766666667     0.253533333333     0.138000000000     0.606474   
C51      C      0.610766666667     0.253533333333     0.638000000000     0.606474   
C51      C      0.610766666667     0.586866666667     0.138000000000     0.606474   
C51      C      0.610766666667     0.586866666667     0.638000000000     0.606474   
C51      C      0.610766666667     0.920200000000     0.138000000000     0.606474   
C51      C      0.610766666667     0.920200000000     0.638000000000     0.606474   
C51      C      0.944100000000     0.253533333333     0.138000000000     0.606474   
C51      C      0.944100000000     0.253533333333     0.638000000000     0.606474   
C51      C      0.944100000000     0.586866666667     0.138000000000     0.606474   
C51      C      0.944100000000     0.586866666667     0.638000000000     0.606474   
C51      C      0.944100000000     0.920200000000     0.138000000000     0.606474   
C51      C      0.944100000000     0.920200000000     0.638000000000     0.606474   
C52      C      0.213266666667     0.224100000000     0.210000000000     0.598274   
C52      C      0.213266666667     0.224100000000     0.710000000000     0.598274   
C52      C      0.213266666667     0.557433333333     0.210000000000     0.598274   
C52      C      0.213266666667     0.557433333333     0.710000000000     0.598274   
C52      C      0.213266666667     0.890766666667     0.210000000000     0.598274   
C52      C      0.213266666667     0.890766666667     0.710000000000     0.598274   
C52      C      0.546600000000     0.224100000000     0.210000000000     0.598274   
C52      C      0.546600000000     0.224100000000     0.710000000000     0.598274   
C52      C      0.546600000000     0.557433333333     0.210000000000     0.598274   
C52      C      0.546600000000     0.557433333333     0.710000000000     0.598274   
C52      C      0.546600000000     0.890766666667     0.210000000000     0.598274   
C52      C      0.546600000000     0.890766666667     0.710000000000     0.598274   
C52      C      0.879933333333     0.224100000000     0.210000000000     0.598274   
C52      C      0.879933333333     0.224100000000     0.710000000000     0.598274   
C52      C      0.879933333333     0.557433333333     0.210000000000     0.598274   
C52      C      0.879933333333     0.557433333333     0.710000000000     0.598274   
C52      C      0.879933333333     0.890766666667     0.210000000000     0.598274   
C52      C      0.879933333333     0.890766666667     0.710000000000     0.598274   
C53      C      0.277333333333     0.160266666667     0.251750000000     0.549328   
C53      C      0.277333333333     0.160266666667     0.751750000000     0.549328   
C53      C      0.277333333333     0.493600000000     0.251750000000     0.549328   
C53      C      0.277333333333     0.493600000000     0.751750000000     0.549328   
C53      C      0.277333333333     0.826933333333     0.251750000000     0.549328   
C53      C      0.277333333333     0.826933333333     0.751750000000     0.549328   
C53      C      0.610666666667     0.160266666667     0.251750000000     0.549328   
C53      C      0.610666666667     0.160266666667     0.751750000000     0.549328   
C53      C      0.610666666667     0.493600000000     0.251750000000     0.549328   
C53      C      0.610666666667     0.493600000000     0.751750000000     0.549328   
C53      C      0.610666666667     0.826933333333     0.251750000000     0.549328   
C53      C      0.610666666667     0.826933333333     0.751750000000     0.549328   
C53      C      0.944000000000     0.160266666667     0.251750000000     0.549328   
C53      C      0.944000000000     0.160266666667     0.751750000000     0.549328   
C53      C      0.944000000000     0.493600000000     0.251750000000     0.549328   
C53      C      0.944000000000     0.493600000000     0.751750000000     0.549328   
C53      C      0.944000000000     0.826933333333     0.251750000000     0.549328   
C53      C      0.944000000000     0.826933333333     0.751750000000     0.549328   
C54      C      0.288133333333     0.229133333333     0.277250000000     0.059976   
C54      C      0.288133333333     0.229133333333     0.777250000000     0.059976   
C54      C      0.288133333333     0.562466666667     0.277250000000     0.059976   
C54      C      0.288133333333     0.562466666667     0.777250000000     0.059976   
C54      C      0.288133333333     0.895800000000     0.277250000000     0.059976   
C54      C      0.288133333333     0.895800000000     0.777250000000     0.059976   
C54      C      0.621466666667     0.229133333333     0.277250000000     0.059976   
C54      C      0.621466666667     0.229133333333     0.777250000000     0.059976   
C54      C      0.621466666667     0.562466666667     0.277250000000     0.059976   
C54      C      0.621466666667     0.562466666667     0.777250000000     0.059976   
C54      C      0.621466666667     0.895800000000     0.277250000000     0.059976   
C54      C      0.621466666667     0.895800000000     0.777250000000     0.059976   
C54      C      0.954800000000     0.229133333333     0.277250000000     0.059976   
C54      C      0.954800000000     0.229133333333     0.777250000000     0.059976   
C54      C      0.954800000000     0.562466666667     0.277250000000     0.059976   
C54      C      0.954800000000     0.562466666667     0.777250000000     0.059976   
C54      C      0.954800000000     0.895800000000     0.277250000000     0.059976   
C54      C      0.954800000000     0.895800000000     0.777250000000     0.059976   
C55      C      0.260466666667     0.257900000000     0.256900000000     0.007398   
C55      C      0.260466666667     0.257900000000     0.756900000000     0.007398   
C55      C      0.260466666667     0.591233333333     0.256900000000     0.007398   
C55      C      0.260466666667     0.591233333333     0.756900000000     0.007398   
C55      C      0.260466666667     0.924566666667     0.256900000000     0.007398   
C55      C      0.260466666667     0.924566666667     0.756900000000     0.007398   
C55      C      0.593800000000     0.257900000000     0.256900000000     0.007398   
C55      C      0.593800000000     0.257900000000     0.756900000000     0.007398   
C55      C      0.593800000000     0.591233333333     0.256900000000     0.007398   
C55      C      0.593800000000     0.591233333333     0.756900000000     0.007398   
C55      C      0.593800000000     0.924566666667     0.256900000000     0.007398   
C55      C      0.593800000000     0.924566666667     0.756900000000     0.007398   
C55      C      0.927133333333     0.257900000000     0.256900000000     0.007398   
C55      C      0.927133333333     0.257900000000     0.756900000000     0.007398   
C55      C      0.927133333333     0.591233333333     0.256900000000     0.007398   
C55      C      0.927133333333     0.591233333333     0.756900000000     0.007398   
C55      C      0.927133333333     0.924566666667     0.256900000000     0.007398   
C55      C      0.927133333333     0.924566666667     0.756900000000     0.007398   
C56      C      0.318900000000     0.253433333333     0.176550000000     1.88553    
C56      C      0.318900000000     0.253433333333     0.676550000000     1.88553    
C56      C      0.318900000000     0.586766666667     0.176550000000     1.88553    
C56      C      0.318900000000     0.586766666667     0.676550000000     1.88553    
C56      C      0.318900000000     0.920100000000     0.176550000000     1.88553    
C56      C      0.318900000000     0.920100000000     0.676550000000     1.88553    
C56      C      0.652233333333     0.253433333333     0.176550000000     1.88553    
C56      C      0.652233333333     0.253433333333     0.676550000000     1.88553    
C56      C      0.652233333333     0.586766666667     0.176550000000     1.88553    
C56      C      0.652233333333     0.586766666667     0.676550000000     1.88553    
C56      C      0.652233333333     0.920100000000     0.176550000000     1.88553    
C56      C      0.652233333333     0.920100000000     0.676550000000     1.88553    
C56      C      0.985566666667     0.253433333333     0.176550000000     1.88553    
C56      C      0.985566666667     0.253433333333     0.676550000000     1.88553    
C56      C      0.985566666667     0.586766666667     0.176550000000     1.88553    
C56      C      0.985566666667     0.586766666667     0.676550000000     1.88553    
C56      C      0.985566666667     0.920100000000     0.176550000000     1.88553    
C56      C      0.985566666667     0.920100000000     0.676550000000     1.88553    
C57      C      0.288166666667     0.135700000000     0.406000000000     1.88553    
C57      C      0.288166666667     0.135700000000     0.906000000000     1.88553    
C57      C      0.288166666667     0.469033333333     0.406000000000     1.88553    
C57      C      0.288166666667     0.469033333333     0.906000000000     1.88553    
C57      C      0.288166666667     0.802366666667     0.406000000000     1.88553    
C57      C      0.288166666667     0.802366666667     0.906000000000     1.88553    
C57      C      0.621500000000     0.135700000000     0.406000000000     1.88553    
C57      C      0.621500000000     0.135700000000     0.906000000000     1.88553    
C57      C      0.621500000000     0.469033333333     0.406000000000     1.88553    
C57      C      0.621500000000     0.469033333333     0.906000000000     1.88553    
C57      C      0.621500000000     0.802366666667     0.406000000000     1.88553    
C57      C      0.621500000000     0.802366666667     0.906000000000     1.88553    
C57      C      0.954833333333     0.135700000000     0.406000000000     1.88553    
C57      C      0.954833333333     0.135700000000     0.906000000000     1.88553    
C57      C      0.954833333333     0.469033333333     0.406000000000     1.88553    
C57      C      0.954833333333     0.469033333333     0.906000000000     1.88553    
C57      C      0.954833333333     0.802366666667     0.406000000000     1.88553    
C57      C      0.954833333333     0.802366666667     0.906000000000     1.88553    
C58      C      0.147033333333     0.259133333333     0.426800000000     2.11561    
C58      C      0.147033333333     0.259133333333     0.926800000000     2.11561    
C58      C      0.147033333333     0.592466666667     0.426800000000     2.11561    
C58      C      0.147033333333     0.592466666667     0.926800000000     2.11561    
C58      C      0.147033333333     0.925800000000     0.426800000000     2.11561    
C58      C      0.147033333333     0.925800000000     0.926800000000     2.11561    
C58      C      0.480366666667     0.259133333333     0.426800000000     2.11561    
C58      C      0.480366666667     0.259133333333     0.926800000000     2.11561    
C58      C      0.480366666667     0.592466666667     0.426800000000     2.11561    
C58      C      0.480366666667     0.592466666667     0.926800000000     2.11561    
C58      C      0.480366666667     0.925800000000     0.426800000000     2.11561    
C58      C      0.480366666667     0.925800000000     0.926800000000     2.11561    
C58      C      0.813700000000     0.259133333333     0.426800000000     2.11561    
C58      C      0.813700000000     0.259133333333     0.926800000000     2.11561    
C58      C      0.813700000000     0.592466666667     0.426800000000     2.11561    
C58      C      0.813700000000     0.592466666667     0.926800000000     2.11561    
C58      C      0.813700000000     0.925800000000     0.426800000000     2.11561    
C58      C      0.813700000000     0.925800000000     0.926800000000     2.11561    
C59      C      0.268466666667     0.103600000000     0.382700000000     2.11562    
C59      C      0.268466666667     0.103600000000     0.882700000000     2.11562    
C59      C      0.268466666667     0.436933333333     0.382700000000     2.11562    
C59      C      0.268466666667     0.436933333333     0.882700000000     2.11562    
C59      C      0.268466666667     0.770266666667     0.382700000000     2.11562    
C59      C      0.268466666667     0.770266666667     0.882700000000     2.11562    
C59      C      0.601800000000     0.103600000000     0.382700000000     2.11562    
C59      C      0.601800000000     0.103600000000     0.882700000000     2.11562    
C59      C      0.601800000000     0.436933333333     0.382700000000     2.11562    
C59      C      0.601800000000     0.436933333333     0.882700000000     2.11562    
C59      C      0.601800000000     0.770266666667     0.382700000000     2.11562    
C59      C      0.601800000000     0.770266666667     0.882700000000     2.11562    
C59      C      0.935133333333     0.103600000000     0.382700000000     2.11562    
C59      C      0.935133333333     0.103600000000     0.882700000000     2.11562    
C59      C      0.935133333333     0.436933333333     0.382700000000     2.11562    
C59      C      0.935133333333     0.436933333333     0.882700000000     2.11562    
C59      C      0.935133333333     0.770266666667     0.382700000000     2.11562    
C59      C      0.935133333333     0.770266666667     0.882700000000     2.11562    
C60      C      0.289000000000     0.103266666667     0.042000000000     0.132154   
C60      C      0.289000000000     0.103266666667     0.542000000000     0.132154   
C60      C      0.289000000000     0.436600000000     0.042000000000     0.132154   
C60      C      0.289000000000     0.436600000000     0.542000000000     0.132154   
C60      C      0.289000000000     0.769933333333     0.042000000000     0.132154   
C60      C      0.289000000000     0.769933333333     0.542000000000     0.132154   
C60      C      0.622333333333     0.103266666667     0.042000000000     0.132154   
C60      C      0.622333333333     0.103266666667     0.542000000000     0.132154   
C60      C      0.622333333333     0.436600000000     0.042000000000     0.132154   
C60      C      0.622333333333     0.436600000000     0.542000000000     0.132154   
C60      C      0.622333333333     0.769933333333     0.042000000000     0.132154   
C60      C      0.622333333333     0.769933333333     0.542000000000     0.132154   
C60      C      0.955666666667     0.103266666667     0.042000000000     0.132154   
C60      C      0.955666666667     0.103266666667     0.542000000000     0.132154   
C60      C      0.955666666667     0.436600000000     0.042000000000     0.132154   
C60      C      0.955666666667     0.436600000000     0.542000000000     0.132154   
C60      C      0.955666666667     0.769933333333     0.042000000000     0.132154   
C60      C      0.955666666667     0.769933333333     0.542000000000     0.132154   
C61      C      0.155466666667     0.197666666667     0.424300000000     0.096852   
C61      C      0.155466666667     0.197666666667     0.924300000000     0.096852   
C61      C      0.155466666667     0.531000000000     0.424300000000     0.096852   
C61      C      0.155466666667     0.531000000000     0.924300000000     0.096852   
C61      C      0.155466666667     0.864333333333     0.424300000000     0.096852   
C61      C      0.155466666667     0.864333333333     0.924300000000     0.096852   
C61      C      0.488800000000     0.197666666667     0.424300000000     0.096852   
C61      C      0.488800000000     0.197666666667     0.924300000000     0.096852   
C61      C      0.488800000000     0.531000000000     0.424300000000     0.096852   
C61      C      0.488800000000     0.531000000000     0.924300000000     0.096852   
C61      C      0.488800000000     0.864333333333     0.424300000000     0.096852   
C61      C      0.488800000000     0.864333333333     0.924300000000     0.096852   
C61      C      0.822133333333     0.197666666667     0.424300000000     0.096852   
C61      C      0.822133333333     0.197666666667     0.924300000000     0.096852   
C61      C      0.822133333333     0.531000000000     0.424300000000     0.096852   
C61      C      0.822133333333     0.531000000000     0.924300000000     0.096852   
C61      C      0.822133333333     0.864333333333     0.424300000000     0.096852   
C61      C      0.822133333333     0.864333333333     0.924300000000     0.096852   
C62      C      0.256200000000     0.044666666667     0.492700000000     0.11268    
C62      C      0.256200000000     0.044666666667     0.992700000000     0.11268    
C62      C      0.256200000000     0.378000000000     0.492700000000     0.11268    
C62      C      0.256200000000     0.378000000000     0.992700000000     0.11268    
C62      C      0.256200000000     0.711333333333     0.492700000000     0.11268    
C62      C      0.256200000000     0.711333333333     0.992700000000     0.11268    
C62      C      0.589533333333     0.044666666667     0.492700000000     0.11268    
C62      C      0.589533333333     0.044666666667     0.992700000000     0.11268    
C62      C      0.589533333333     0.378000000000     0.492700000000     0.11268    
C62      C      0.589533333333     0.378000000000     0.992700000000     0.11268    
C62      C      0.589533333333     0.711333333333     0.492700000000     0.11268    
C62      C      0.589533333333     0.711333333333     0.992700000000     0.11268    
C62      C      0.922866666667     0.044666666667     0.492700000000     0.11268    
C62      C      0.922866666667     0.044666666667     0.992700000000     0.11268    
C62      C      0.922866666667     0.378000000000     0.492700000000     0.11268    
C62      C      0.922866666667     0.378000000000     0.992700000000     0.11268    
C62      C      0.922866666667     0.711333333333     0.492700000000     0.11268    
C62      C      0.922866666667     0.711333333333     0.992700000000     0.11268    
C63      C      0.127833333333     0.226733333333     0.402950000000     0.084923   
C63      C      0.127833333333     0.226733333333     0.902950000000     0.084923   
C63      C      0.127833333333     0.560066666667     0.402950000000     0.084923   
C63      C      0.127833333333     0.560066666667     0.902950000000     0.084923   
C63      C      0.127833333333     0.893400000000     0.402950000000     0.084923   
C63      C      0.127833333333     0.893400000000     0.902950000000     0.084923   
C63      C      0.461166666667     0.226733333333     0.402950000000     0.084923   
C63      C      0.461166666667     0.226733333333     0.902950000000     0.084923   
C63      C      0.461166666667     0.560066666667     0.402950000000     0.084923   
C63      C      0.461166666667     0.560066666667     0.902950000000     0.084923   
C63      C      0.461166666667     0.893400000000     0.402950000000     0.084923   
C63      C      0.461166666667     0.893400000000     0.902950000000     0.084923   
C63      C      0.794500000000     0.226733333333     0.402950000000     0.084923   
C63      C      0.794500000000     0.226733333333     0.902950000000     0.084923   
C63      C      0.794500000000     0.560066666667     0.402950000000     0.084923   
C63      C      0.794500000000     0.560066666667     0.902950000000     0.084923   
C63      C      0.794500000000     0.893400000000     0.402950000000     0.084923   
C63      C      0.794500000000     0.893400000000     0.902950000000     0.084923   
C64      C      0.238566666667     0.078966666667     0.484050000000     0.115809   
C64      C      0.238566666667     0.078966666667     0.984050000000     0.115809   
C64      C      0.238566666667     0.412300000000     0.484050000000     0.115809   
C64      C      0.238566666667     0.412300000000     0.984050000000     0.115809   
C64      C      0.238566666667     0.745633333333     0.484050000000     0.115809   
C64      C      0.238566666667     0.745633333333     0.984050000000     0.115809   
C64      C      0.571900000000     0.078966666667     0.484050000000     0.115809   
C64      C      0.571900000000     0.078966666667     0.984050000000     0.115809   
C64      C      0.571900000000     0.412300000000     0.484050000000     0.115809   
C64      C      0.571900000000     0.412300000000     0.984050000000     0.115809   
C64      C      0.571900000000     0.745633333333     0.484050000000     0.115809   
C64      C      0.571900000000     0.745633333333     0.984050000000     0.115809   
C64      C      0.905233333333     0.078966666667     0.484050000000     0.115809   
C64      C      0.905233333333     0.078966666667     0.984050000000     0.115809   
C64      C      0.905233333333     0.412300000000     0.484050000000     0.115809   
C64      C      0.905233333333     0.412300000000     0.984050000000     0.115809   
C64      C      0.905233333333     0.745633333333     0.484050000000     0.115809   
C64      C      0.905233333333     0.745633333333     0.984050000000     0.115809   
C65      C      0.295900000000     0.046133333333     0.032750000000     0.108307   
C65      C      0.295900000000     0.046133333333     0.532750000000     0.108307   
C65      C      0.295900000000     0.379466666667     0.032750000000     0.108307   
C65      C      0.295900000000     0.379466666667     0.532750000000     0.108307   
C65      C      0.295900000000     0.712800000000     0.032750000000     0.108307   
C65      C      0.295900000000     0.712800000000     0.532750000000     0.108307   
C65      C      0.629233333333     0.046133333333     0.032750000000     0.108307   
C65      C      0.629233333333     0.046133333333     0.532750000000     0.108307   
C65      C      0.629233333333     0.379466666667     0.032750000000     0.108307   
C65      C      0.629233333333     0.379466666667     0.532750000000     0.108307   
C65      C      0.629233333333     0.712800000000     0.032750000000     0.108307   
C65      C      0.629233333333     0.712800000000     0.532750000000     0.108307   
C65      C      0.962566666667     0.046133333333     0.032750000000     0.108307   
C65      C      0.962566666667     0.046133333333     0.532750000000     0.108307   
C65      C      0.962566666667     0.379466666667     0.032750000000     0.108307   
C65      C      0.962566666667     0.379466666667     0.532750000000     0.108307   
C65      C      0.962566666667     0.712800000000     0.032750000000     0.108307   
C65      C      0.962566666667     0.712800000000     0.532750000000     0.108307   
C66      C      0.315333333333     0.106633333333     0.428400000000     0.105898   
C66      C      0.315333333333     0.106633333333     0.928400000000     0.105898   
C66      C      0.315333333333     0.439966666667     0.428400000000     0.105898   
C66      C      0.315333333333     0.439966666667     0.928400000000     0.105898   
C66      C      0.315333333333     0.773300000000     0.428400000000     0.105898   
C66      C      0.315333333333     0.773300000000     0.928400000000     0.105898   
C66      C      0.648666666667     0.106633333333     0.428400000000     0.105898   
C66      C      0.648666666667     0.106633333333     0.928400000000     0.105898   
C66      C      0.648666666667     0.439966666667     0.428400000000     0.105898   
C66      C      0.648666666667     0.439966666667     0.928400000000     0.105898   
C66      C      0.648666666667     0.773300000000     0.428400000000     0.105898   
C66      C      0.648666666667     0.773300000000     0.928400000000     0.105898   
C66      C      0.982000000000     0.106633333333     0.428400000000     0.105898   
C66      C      0.982000000000     0.106633333333     0.928400000000     0.105898   
C66      C      0.982000000000     0.439966666667     0.428400000000     0.105898   
C66      C      0.982000000000     0.439966666667     0.928400000000     0.105898   
C66      C      0.982000000000     0.773300000000     0.428400000000     0.105898   
C66      C      0.982000000000     0.773300000000     0.928400000000     0.105898   
C67      C      0.278033333333     0.081300000000     0.023800000000     0.114911   
C67      C      0.278033333333     0.081300000000     0.523800000000     0.114911   
C67      C      0.278033333333     0.414633333333     0.023800000000     0.114911   
C67      C      0.278033333333     0.414633333333     0.523800000000     0.114911   
C67      C      0.278033333333     0.747966666667     0.023800000000     0.114911   
C67      C      0.278033333333     0.747966666667     0.523800000000     0.114911   
C67      C      0.611366666667     0.081300000000     0.023800000000     0.114911   
C67      C      0.611366666667     0.081300000000     0.523800000000     0.114911   
C67      C      0.611366666667     0.414633333333     0.023800000000     0.114911   
C67      C      0.611366666667     0.414633333333     0.523800000000     0.114911   
C67      C      0.611366666667     0.747966666667     0.023800000000     0.114911   
C67      C      0.611366666667     0.747966666667     0.523800000000     0.114911   
C67      C      0.944700000000     0.081300000000     0.023800000000     0.114911   
C67      C      0.944700000000     0.081300000000     0.523800000000     0.114911   
C67      C      0.944700000000     0.414633333333     0.023800000000     0.114911   
C67      C      0.944700000000     0.414633333333     0.523800000000     0.114911   
C67      C      0.944700000000     0.747966666667     0.023800000000     0.114911   
C67      C      0.944700000000     0.747966666667     0.523800000000     0.114911   
C68      C      0.007533333333     0.109233333333     0.454350000000     0.10763    
C68      C      0.007533333333     0.109233333333     0.954350000000     0.10763    
C68      C      0.007533333333     0.442566666667     0.454350000000     0.10763    
C68      C      0.007533333333     0.442566666667     0.954350000000     0.10763    
C68      C      0.007533333333     0.775900000000     0.454350000000     0.10763    
C68      C      0.007533333333     0.775900000000     0.954350000000     0.10763    
C68      C      0.340866666667     0.109233333333     0.454350000000     0.10763    
C68      C      0.340866666667     0.109233333333     0.954350000000     0.10763    
C68      C      0.340866666667     0.442566666667     0.454350000000     0.10763    
C68      C      0.340866666667     0.442566666667     0.954350000000     0.10763    
C68      C      0.340866666667     0.775900000000     0.454350000000     0.10763    
C68      C      0.340866666667     0.775900000000     0.954350000000     0.10763    
C68      C      0.674200000000     0.109233333333     0.454350000000     0.10763    
C68      C      0.674200000000     0.109233333333     0.954350000000     0.10763    
C68      C      0.674200000000     0.442566666667     0.454350000000     0.10763    
C68      C      0.674200000000     0.442566666667     0.954350000000     0.10763    
C68      C      0.674200000000     0.775900000000     0.454350000000     0.10763    
C68      C      0.674200000000     0.775900000000     0.954350000000     0.10763    
C69      C      0.004433333333     0.307933333333     0.440300000000     0.120831   
C69      C      0.004433333333     0.307933333333     0.940300000000     0.120831   
C69      C      0.004433333333     0.641266666667     0.440300000000     0.120831   
C69      C      0.004433333333     0.641266666667     0.940300000000     0.120831   
C69      C      0.004433333333     0.974600000000     0.440300000000     0.120831   
C69      C      0.004433333333     0.974600000000     0.940300000000     0.120831   
C69      C      0.337766666667     0.307933333333     0.440300000000     0.120831   
C69      C      0.337766666667     0.307933333333     0.940300000000     0.120831   
C69      C      0.337766666667     0.641266666667     0.440300000000     0.120831   
C69      C      0.337766666667     0.641266666667     0.940300000000     0.120831   
C69      C      0.337766666667     0.974600000000     0.440300000000     0.120831   
C69      C      0.337766666667     0.974600000000     0.940300000000     0.120831   
C69      C      0.671100000000     0.307933333333     0.440300000000     0.120831   
C69      C      0.671100000000     0.307933333333     0.940300000000     0.120831   
C69      C      0.671100000000     0.641266666667     0.440300000000     0.120831   
C69      C      0.671100000000     0.641266666667     0.940300000000     0.120831   
C69      C      0.671100000000     0.974600000000     0.440300000000     0.120831   
C69      C      0.671100000000     0.974600000000     0.940300000000     0.120831   
C70      C      0.282633333333     0.171400000000     0.406200000000     0.108593   
C70      C      0.282633333333     0.171400000000     0.906200000000     0.108593   
C70      C      0.282633333333     0.504733333333     0.406200000000     0.108593   
C70      C      0.282633333333     0.504733333333     0.906200000000     0.108593   
C70      C      0.282633333333     0.838066666667     0.406200000000     0.108593   
C70      C      0.282633333333     0.838066666667     0.906200000000     0.108593   
C70      C      0.615966666667     0.171400000000     0.406200000000     0.108593   
C70      C      0.615966666667     0.171400000000     0.906200000000     0.108593   
C70      C      0.615966666667     0.504733333333     0.406200000000     0.108593   
C70      C      0.615966666667     0.504733333333     0.906200000000     0.108593   
C70      C      0.615966666667     0.838066666667     0.406200000000     0.108593   
C70      C      0.615966666667     0.838066666667     0.906200000000     0.108593   
C70      C      0.949300000000     0.171400000000     0.406200000000     0.108593   
C70      C      0.949300000000     0.171400000000     0.906200000000     0.108593   
C70      C      0.949300000000     0.504733333333     0.406200000000     0.108593   
C70      C      0.949300000000     0.504733333333     0.906200000000     0.108593   
C70      C      0.949300000000     0.838066666667     0.406200000000     0.108593   
C70      C      0.949300000000     0.838066666667     0.906200000000     0.108593   
C71      C      0.173400000000     0.230700000000     0.448700000000     0.124137   
C71      C      0.173400000000     0.230700000000     0.948700000000     0.124137   
C71      C      0.173400000000     0.564033333333     0.448700000000     0.124137   
C71      C      0.173400000000     0.564033333333     0.948700000000     0.124137   
C71      C      0.173400000000     0.897366666667     0.448700000000     0.124137   
C71      C      0.173400000000     0.897366666667     0.948700000000     0.124137   
C71      C      0.506733333333     0.230700000000     0.448700000000     0.124137   
C71      C      0.506733333333     0.230700000000     0.948700000000     0.124137   
C71      C      0.506733333333     0.564033333333     0.448700000000     0.124137   
C71      C      0.506733333333     0.564033333333     0.948700000000     0.124137   
C71      C      0.506733333333     0.897366666667     0.448700000000     0.124137   
C71      C      0.506733333333     0.897366666667     0.948700000000     0.124137   
C71      C      0.840066666667     0.230700000000     0.448700000000     0.124137   
C71      C      0.840066666667     0.230700000000     0.948700000000     0.124137   
C71      C      0.840066666667     0.564033333333     0.448700000000     0.124137   
C71      C      0.840066666667     0.564033333333     0.948700000000     0.124137   
C71      C      0.840066666667     0.897366666667     0.448700000000     0.124137   
C71      C      0.840066666667     0.897366666667     0.948700000000     0.124137   
C72      C      0.295666666667     0.074800000000     0.404250000000     0.464732   
C72      C      0.295666666667     0.074800000000     0.904250000000     0.464732   
C72      C      0.295666666667     0.408133333333     0.404250000000     0.464732   
C72      C      0.295666666667     0.408133333333     0.904250000000     0.464732   
C72      C      0.295666666667     0.741466666667     0.404250000000     0.464732   
C72      C      0.295666666667     0.741466666667     0.904250000000     0.464732   
C72      C      0.629000000000     0.074800000000     0.404250000000     0.464732   
C72      C      0.629000000000     0.074800000000     0.904250000000     0.464732   
C72      C      0.629000000000     0.408133333333     0.404250000000     0.464732   
C72      C      0.629000000000     0.408133333333     0.904250000000     0.464732   
C72      C      0.629000000000     0.741466666667     0.404250000000     0.464732   
C72      C      0.629000000000     0.741466666667     0.904250000000     0.464732   
C72      C      0.962333333333     0.074800000000     0.404250000000     0.464732   
C72      C      0.962333333333     0.074800000000     0.904250000000     0.464732   
C72      C      0.962333333333     0.408133333333     0.404250000000     0.464732   
C72      C      0.962333333333     0.408133333333     0.904250000000     0.464732   
C72      C      0.962333333333     0.741466666667     0.404250000000     0.464732   
C72      C      0.962333333333     0.741466666667     0.904250000000     0.464732   
Gd1      Gd     0.289293333333     0.266236666667     0.448170000000     0.464156   
Gd1      Gd     0.289293333333     0.266236666667     0.948170000000     0.464156   
Gd1      Gd     0.289293333333     0.599570000000     0.448170000000     0.464156   
Gd1      Gd     0.289293333333     0.599570000000     0.948170000000     0.464156   
Gd1      Gd     0.289293333333     0.932903333333     0.448170000000     0.464156   
Gd1      Gd     0.289293333333     0.932903333333     0.948170000000     0.464156   
Gd1      Gd     0.622626666667     0.266236666667     0.448170000000     0.464156   
Gd1      Gd     0.622626666667     0.266236666667     0.948170000000     0.464156   
Gd1      Gd     0.622626666667     0.599570000000     0.448170000000     0.464156   
Gd1      Gd     0.622626666667     0.599570000000     0.948170000000     0.464156   
Gd1      Gd     0.622626666667     0.932903333333     0.448170000000     0.464156   
Gd1      Gd     0.622626666667     0.932903333333     0.948170000000     0.464156   
Gd1      Gd     0.955960000000     0.266236666667     0.448170000000     0.464156   
Gd1      Gd     0.955960000000     0.266236666667     0.948170000000     0.464156   
Gd1      Gd     0.955960000000     0.599570000000     0.448170000000     0.464156   
Gd1      Gd     0.955960000000     0.599570000000     0.948170000000     0.464156   
Gd1      Gd     0.955960000000     0.932903333333     0.448170000000     0.464156   
Gd1      Gd     0.955960000000     0.932903333333     0.948170000000     0.464156   
Gd2      Gd     0.044040000000     0.067096666667     0.051830000000     0.11581    
Gd2      Gd     0.044040000000     0.067096666667     0.551830000000     0.11581    
Gd2      Gd     0.044040000000     0.400430000000     0.051830000000     0.11581    
Gd2      Gd     0.044040000000     0.400430000000     0.551830000000     0.11581    
Gd2      Gd     0.044040000000     0.733763333333     0.051830000000     0.11581    
Gd2      Gd     0.044040000000     0.733763333333     0.551830000000     0.11581    
Gd2      Gd     0.377373333333     0.067096666667     0.051830000000     0.11581    
Gd2      Gd     0.377373333333     0.067096666667     0.551830000000     0.11581    
Gd2      Gd     0.377373333333     0.400430000000     0.051830000000     0.11581    
Gd2      Gd     0.377373333333     0.400430000000     0.551830000000     0.11581    
Gd2      Gd     0.377373333333     0.733763333333     0.051830000000     0.11581    
Gd2      Gd     0.377373333333     0.733763333333     0.551830000000     0.11581    
Gd2      Gd     0.710706666667     0.067096666667     0.051830000000     0.11581    
Gd2      Gd     0.710706666667     0.067096666667     0.551830000000     0.11581    
Gd2      Gd     0.710706666667     0.400430000000     0.051830000000     0.11581    
Gd2      Gd     0.710706666667     0.400430000000     0.551830000000     0.11581    
Gd2      Gd     0.710706666667     0.733763333333     0.051830000000     0.11581    
Gd2      Gd     0.710706666667     0.733763333333     0.551830000000     0.11581    
Gd3      Gd     0.081383333333     0.172896666667     0.338395000000     0.105898   
Gd3      Gd     0.081383333333     0.172896666667     0.838395000000     0.105898   
Gd3      Gd     0.081383333333     0.506230000000     0.338395000000     0.105898   
Gd3      Gd     0.081383333333     0.506230000000     0.838395000000     0.105898   
Gd3      Gd     0.081383333333     0.839563333333     0.338395000000     0.105898   
Gd3      Gd     0.081383333333     0.839563333333     0.838395000000     0.105898   
Gd3      Gd     0.414716666667     0.172896666667     0.338395000000     0.105898   
Gd3      Gd     0.414716666667     0.172896666667     0.838395000000     0.105898   
Gd3      Gd     0.414716666667     0.506230000000     0.338395000000     0.105898   
Gd3      Gd     0.414716666667     0.506230000000     0.838395000000     0.105898   
Gd3      Gd     0.414716666667     0.839563333333     0.338395000000     0.105898   
Gd3      Gd     0.414716666667     0.839563333333     0.838395000000     0.105898   
Gd3      Gd     0.748050000000     0.172896666667     0.338395000000     0.105898   
Gd3      Gd     0.748050000000     0.172896666667     0.838395000000     0.105898   
Gd3      Gd     0.748050000000     0.506230000000     0.338395000000     0.105898   
Gd3      Gd     0.748050000000     0.506230000000     0.838395000000     0.105898   
Gd3      Gd     0.748050000000     0.839563333333     0.338395000000     0.105898   
Gd3      Gd     0.748050000000     0.839563333333     0.838395000000     0.105898   
Gd4      Gd     0.251950000000     0.160436666667     0.161605000000     0.120834   
Gd4      Gd     0.251950000000     0.160436666667     0.661605000000     0.120834   
Gd4      Gd     0.251950000000     0.493770000000     0.161605000000     0.120834   
Gd4      Gd     0.251950000000     0.493770000000     0.661605000000     0.120834   
Gd4      Gd     0.251950000000     0.827103333333     0.161605000000     0.120834   
Gd4      Gd     0.251950000000     0.827103333333     0.661605000000     0.120834   
Gd4      Gd     0.585283333333     0.160436666667     0.161605000000     0.120834   
Gd4      Gd     0.585283333333     0.160436666667     0.661605000000     0.120834   
Gd4      Gd     0.585283333333     0.493770000000     0.161605000000     0.120834   
Gd4      Gd     0.585283333333     0.493770000000     0.661605000000     0.120834   
Gd4      Gd     0.585283333333     0.827103333333     0.161605000000     0.120834   
Gd4      Gd     0.585283333333     0.827103333333     0.661605000000     0.120834   
Gd4      Gd     0.918616666667     0.160436666667     0.161605000000     0.120834   
Gd4      Gd     0.918616666667     0.160436666667     0.661605000000     0.120834   
Gd4      Gd     0.918616666667     0.493770000000     0.161605000000     0.120834   
Gd4      Gd     0.918616666667     0.493770000000     0.661605000000     0.120834   
Gd4      Gd     0.918616666667     0.827103333333     0.161605000000     0.120834   
Gd4      Gd     0.918616666667     0.827103333333     0.661605000000     0.120834   
H1       H      0.080900000000     0.231666666667     0.132250000000     0.108307   
H1       H      0.080900000000     0.231666666667     0.632250000000     0.108307   
H1       H      0.080900000000     0.565000000000     0.132250000000     0.108307   
H1       H      0.080900000000     0.565000000000     0.632250000000     0.108307   
H1       H      0.080900000000     0.898333333333     0.132250000000     0.108307   
H1       H      0.080900000000     0.898333333333     0.632250000000     0.108307   
H1       H      0.414233333333     0.231666666667     0.132250000000     0.108307   
H1       H      0.414233333333     0.231666666667     0.632250000000     0.108307   
H1       H      0.414233333333     0.565000000000     0.132250000000     0.108307   
H1       H      0.414233333333     0.565000000000     0.632250000000     0.108307   
H1       H      0.414233333333     0.898333333333     0.132250000000     0.108307   
H1       H      0.414233333333     0.898333333333     0.632250000000     0.108307   
H1       H      0.747566666667     0.231666666667     0.132250000000     0.108307   
H1       H      0.747566666667     0.231666666667     0.632250000000     0.108307   
H1       H      0.747566666667     0.565000000000     0.132250000000     0.108307   
H1       H      0.747566666667     0.565000000000     0.632250000000     0.108307   
H1       H      0.747566666667     0.898333333333     0.132250000000     0.108307   
H1       H      0.747566666667     0.898333333333     0.632250000000     0.108307   
H2       H      0.129533333333     0.030200000000     0.150900000000     0.084918   
H2       H      0.129533333333     0.030200000000     0.650900000000     0.084918   
H2       H      0.129533333333     0.363533333333     0.150900000000     0.084918   
H2       H      0.129533333333     0.363533333333     0.650900000000     0.084918   
H2       H      0.129533333333     0.696866666667     0.150900000000     0.084918   
H2       H      0.129533333333     0.696866666667     0.650900000000     0.084918   
H2       H      0.462866666667     0.030200000000     0.150900000000     0.084918   
H2       H      0.462866666667     0.030200000000     0.650900000000     0.084918   
H2       H      0.462866666667     0.363533333333     0.150900000000     0.084918   
H2       H      0.462866666667     0.363533333333     0.650900000000     0.084918   
H2       H      0.462866666667     0.696866666667     0.150900000000     0.084918   
H2       H      0.462866666667     0.696866666667     0.650900000000     0.084918   
H2       H      0.796200000000     0.030200000000     0.150900000000     0.084918   
H2       H      0.796200000000     0.030200000000     0.650900000000     0.084918   
H2       H      0.796200000000     0.363533333333     0.150900000000     0.084918   
H2       H      0.796200000000     0.363533333333     0.650900000000     0.084918   
H2       H      0.796200000000     0.696866666667     0.150900000000     0.084918   
H2       H      0.796200000000     0.696866666667     0.650900000000     0.084918   
H3       H      0.188400000000     0.232766666667     0.465050000000     0.464152   
H3       H      0.188400000000     0.232766666667     0.965050000000     0.464152   
H3       H      0.188400000000     0.566100000000     0.465050000000     0.464152   
H3       H      0.188400000000     0.566100000000     0.965050000000     0.464152   
H3       H      0.188400000000     0.899433333333     0.465050000000     0.464152   
H3       H      0.188400000000     0.899433333333     0.965050000000     0.464152   
H3       H      0.521733333333     0.232766666667     0.465050000000     0.464152   
H3       H      0.521733333333     0.232766666667     0.965050000000     0.464152   
H3       H      0.521733333333     0.566100000000     0.465050000000     0.464152   
H3       H      0.521733333333     0.566100000000     0.965050000000     0.464152   
H3       H      0.521733333333     0.899433333333     0.465050000000     0.464152   
H3       H      0.521733333333     0.899433333333     0.965050000000     0.464152   
H3       H      0.855066666667     0.232766666667     0.465050000000     0.464152   
H3       H      0.855066666667     0.232766666667     0.965050000000     0.464152   
H3       H      0.855066666667     0.566100000000     0.465050000000     0.464152   
H3       H      0.855066666667     0.566100000000     0.965050000000     0.464152   
H3       H      0.855066666667     0.899433333333     0.465050000000     0.464152   
H3       H      0.855066666667     0.899433333333     0.965050000000     0.464152   
H4       H      0.101400000000     0.087533333333     0.134800000000     0.13215    
H4       H      0.101400000000     0.087533333333     0.634800000000     0.13215    
H4       H      0.101400000000     0.420866666667     0.134800000000     0.13215    
H4       H      0.101400000000     0.420866666667     0.634800000000     0.13215    
H4       H      0.101400000000     0.754200000000     0.134800000000     0.13215    
H4       H      0.101400000000     0.754200000000     0.634800000000     0.13215    
H4       H      0.434733333333     0.087533333333     0.134800000000     0.13215    
H4       H      0.434733333333     0.087533333333     0.634800000000     0.13215    
H4       H      0.434733333333     0.420866666667     0.134800000000     0.13215    
H4       H      0.434733333333     0.420866666667     0.634800000000     0.13215    
H4       H      0.434733333333     0.754200000000     0.134800000000     0.13215    
H4       H      0.434733333333     0.754200000000     0.634800000000     0.13215    
H4       H      0.768066666667     0.087533333333     0.134800000000     0.13215    
H4       H      0.768066666667     0.087533333333     0.634800000000     0.13215    
H4       H      0.768066666667     0.420866666667     0.134800000000     0.13215    
H4       H      0.768066666667     0.420866666667     0.634800000000     0.13215    
H4       H      0.768066666667     0.754200000000     0.134800000000     0.13215    
H4       H      0.768066666667     0.754200000000     0.634800000000     0.13215    
H5       H      0.074900000000     0.054466666667     0.241850000000     0.108593   
H5       H      0.074900000000     0.054466666667     0.741850000000     0.108593   
H5       H      0.074900000000     0.387800000000     0.241850000000     0.108593   
H5       H      0.074900000000     0.387800000000     0.741850000000     0.108593   
H5       H      0.074900000000     0.721133333333     0.241850000000     0.108593   
H5       H      0.074900000000     0.721133333333     0.741850000000     0.108593   
H5       H      0.408233333333     0.054466666667     0.241850000000     0.108593   
H5       H      0.408233333333     0.054466666667     0.741850000000     0.108593   
H5       H      0.408233333333     0.387800000000     0.241850000000     0.108593   
H5       H      0.408233333333     0.387800000000     0.741850000000     0.108593   
H5       H      0.408233333333     0.721133333333     0.241850000000     0.108593   
H5       H      0.408233333333     0.721133333333     0.741850000000     0.108593   
H5       H      0.741566666667     0.054466666667     0.241850000000     0.108593   
H5       H      0.741566666667     0.054466666667     0.741850000000     0.108593   
H5       H      0.741566666667     0.387800000000     0.241850000000     0.108593   
H5       H      0.741566666667     0.387800000000     0.741850000000     0.108593   
H5       H      0.741566666667     0.721133333333     0.241850000000     0.108593   
H5       H      0.741566666667     0.721133333333     0.741850000000     0.108593   
H6       H      0.327966666667     0.091500000000     0.306550000000     0.124136   
H6       H      0.327966666667     0.091500000000     0.806550000000     0.124136   
H6       H      0.327966666667     0.424833333333     0.306550000000     0.124136   
H6       H      0.327966666667     0.424833333333     0.806550000000     0.124136   
H6       H      0.327966666667     0.758166666667     0.306550000000     0.124136   
H6       H      0.327966666667     0.758166666667     0.806550000000     0.124136   
H6       H      0.661300000000     0.091500000000     0.306550000000     0.124136   
H6       H      0.661300000000     0.091500000000     0.806550000000     0.124136   
H6       H      0.661300000000     0.424833333333     0.306550000000     0.124136   
H6       H      0.661300000000     0.424833333333     0.806550000000     0.124136   
H6       H      0.661300000000     0.758166666667     0.306550000000     0.124136   
H6       H      0.661300000000     0.758166666667     0.806550000000     0.124136   
H6       H      0.994633333333     0.091500000000     0.306550000000     0.124136   
H6       H      0.994633333333     0.091500000000     0.806550000000     0.124136   
H6       H      0.994633333333     0.424833333333     0.306550000000     0.124136   
H6       H      0.994633333333     0.424833333333     0.806550000000     0.124136   
H6       H      0.994633333333     0.758166666667     0.306550000000     0.124136   
H6       H      0.994633333333     0.758166666667     0.806550000000     0.124136   
H7       H      0.029633333333     0.101900000000     0.207500000000     0.114908   
H7       H      0.029633333333     0.101900000000     0.707500000000     0.114908   
H7       H      0.029633333333     0.435233333333     0.207500000000     0.114908   
H7       H      0.029633333333     0.435233333333     0.707500000000     0.114908   
H7       H      0.029633333333     0.768566666667     0.207500000000     0.114908   
H7       H      0.029633333333     0.768566666667     0.707500000000     0.114908   
H7       H      0.362966666667     0.101900000000     0.207500000000     0.114908   
H7       H      0.362966666667     0.101900000000     0.707500000000     0.114908   
H7       H      0.362966666667     0.435233333333     0.207500000000     0.114908   
H7       H      0.362966666667     0.435233333333     0.707500000000     0.114908   
H7       H      0.362966666667     0.768566666667     0.207500000000     0.114908   
H7       H      0.362966666667     0.768566666667     0.707500000000     0.114908   
H7       H      0.696300000000     0.101900000000     0.207500000000     0.114908   
H7       H      0.696300000000     0.101900000000     0.707500000000     0.114908   
H7       H      0.696300000000     0.435233333333     0.207500000000     0.114908   
H7       H      0.696300000000     0.435233333333     0.707500000000     0.114908   
H7       H      0.696300000000     0.768566666667     0.207500000000     0.114908   
H7       H      0.696300000000     0.768566666667     0.707500000000     0.114908   
H8       H      0.085133333333     0.300833333333     0.018750000000     0.112672   
H8       H      0.085133333333     0.300833333333     0.518750000000     0.112672   
H8       H      0.085133333333     0.634166666667     0.018750000000     0.112672   
H8       H      0.085133333333     0.634166666667     0.518750000000     0.112672   
H8       H      0.085133333333     0.967500000000     0.018750000000     0.112672   
H8       H      0.085133333333     0.967500000000     0.518750000000     0.112672   
H8       H      0.418466666667     0.300833333333     0.018750000000     0.112672   
H8       H      0.418466666667     0.300833333333     0.518750000000     0.112672   
H8       H      0.418466666667     0.634166666667     0.018750000000     0.112672   
H8       H      0.418466666667     0.634166666667     0.518750000000     0.112672   
H8       H      0.418466666667     0.967500000000     0.018750000000     0.112672   
H8       H      0.418466666667     0.967500000000     0.518750000000     0.112672   
H8       H      0.751800000000     0.300833333333     0.018750000000     0.112672   
H8       H      0.751800000000     0.300833333333     0.518750000000     0.112672   
H8       H      0.751800000000     0.634166666667     0.018750000000     0.112672   
H8       H      0.751800000000     0.634166666667     0.518750000000     0.112672   
H8       H      0.751800000000     0.967500000000     0.018750000000     0.112672   
H8       H      0.751800000000     0.967500000000     0.518750000000     0.112672   
H9       H      0.145533333333     0.280066666667     0.427200000000     0.107626   
H9       H      0.145533333333     0.280066666667     0.927200000000     0.107626   
H9       H      0.145533333333     0.613400000000     0.427200000000     0.107626   
H9       H      0.145533333333     0.613400000000     0.927200000000     0.107626   
H9       H      0.145533333333     0.946733333333     0.427200000000     0.107626   
H9       H      0.145533333333     0.946733333333     0.927200000000     0.107626   
H9       H      0.478866666667     0.280066666667     0.427200000000     0.107626   
H9       H      0.478866666667     0.280066666667     0.927200000000     0.107626   
H9       H      0.478866666667     0.613400000000     0.427200000000     0.107626   
H9       H      0.478866666667     0.613400000000     0.927200000000     0.107626   
H9       H      0.478866666667     0.946733333333     0.427200000000     0.107626   
H9       H      0.478866666667     0.946733333333     0.927200000000     0.107626   
H9       H      0.812200000000     0.280066666667     0.427200000000     0.107626   
H9       H      0.812200000000     0.280066666667     0.927200000000     0.107626   
H9       H      0.812200000000     0.613400000000     0.427200000000     0.107626   
H9       H      0.812200000000     0.613400000000     0.927200000000     0.107626   
H9       H      0.812200000000     0.946733333333     0.427200000000     0.107626   
H9       H      0.812200000000     0.946733333333     0.927200000000     0.107626   
H10      H      0.020133333333     0.033900000000     0.322550000000     0.096851   
H10      H      0.020133333333     0.033900000000     0.822550000000     0.096851   
H10      H      0.020133333333     0.367233333333     0.322550000000     0.096851   
H10      H      0.020133333333     0.367233333333     0.822550000000     0.096851   
H10      H      0.020133333333     0.700566666667     0.322550000000     0.096851   
H10      H      0.020133333333     0.700566666667     0.822550000000     0.096851   
H10      H      0.353466666667     0.033900000000     0.322550000000     0.096851   
H10      H      0.353466666667     0.033900000000     0.822550000000     0.096851   
H10      H      0.353466666667     0.367233333333     0.322550000000     0.096851   
H10      H      0.353466666667     0.367233333333     0.822550000000     0.096851   
H10      H      0.353466666667     0.700566666667     0.322550000000     0.096851   
H10      H      0.353466666667     0.700566666667     0.822550000000     0.096851   
H10      H      0.686800000000     0.033900000000     0.322550000000     0.096851   
H10      H      0.686800000000     0.033900000000     0.822550000000     0.096851   
H10      H      0.686800000000     0.367233333333     0.322550000000     0.096851   
H10      H      0.686800000000     0.367233333333     0.822550000000     0.096851   
H10      H      0.686800000000     0.700566666667     0.322550000000     0.096851   
H10      H      0.686800000000     0.700566666667     0.822550000000     0.096851   
H11      H      0.035466666667     0.279466666667     0.097450000000     0.464728   
H11      H      0.035466666667     0.279466666667     0.597450000000     0.464728   
H11      H      0.035466666667     0.612800000000     0.097450000000     0.464728   
H11      H      0.035466666667     0.612800000000     0.597450000000     0.464728   
H11      H      0.035466666667     0.946133333333     0.097450000000     0.464728   
H11      H      0.035466666667     0.946133333333     0.597450000000     0.464728   
H11      H      0.368800000000     0.279466666667     0.097450000000     0.464728   
H11      H      0.368800000000     0.279466666667     0.597450000000     0.464728   
H11      H      0.368800000000     0.612800000000     0.097450000000     0.464728   
H11      H      0.368800000000     0.612800000000     0.597450000000     0.464728   
H11      H      0.368800000000     0.946133333333     0.097450000000     0.464728   
H11      H      0.368800000000     0.946133333333     0.597450000000     0.464728   
H11      H      0.702133333333     0.279466666667     0.097450000000     0.464728   
H11      H      0.702133333333     0.279466666667     0.597450000000     0.464728   
H11      H      0.702133333333     0.612800000000     0.097450000000     0.464728   
H11      H      0.702133333333     0.612800000000     0.597450000000     0.464728   
H11      H      0.702133333333     0.946133333333     0.097450000000     0.464728   
H11      H      0.702133333333     0.946133333333     0.597450000000     0.464728   
H12      H      0.114533333333     0.243700000000     0.032950000000    -0.178348   
H12      H      0.114533333333     0.243700000000     0.532950000000    -0.178348   
H12      H      0.114533333333     0.577033333333     0.032950000000    -0.178348   
H12      H      0.114533333333     0.577033333333     0.532950000000    -0.178348   
H12      H      0.114533333333     0.910366666667     0.032950000000    -0.178348   
H12      H      0.114533333333     0.910366666667     0.532950000000    -0.178348   
H12      H      0.447866666667     0.243700000000     0.032950000000    -0.178348   
H12      H      0.447866666667     0.243700000000     0.532950000000    -0.178348   
H12      H      0.447866666667     0.577033333333     0.032950000000    -0.178348   
H12      H      0.447866666667     0.577033333333     0.532950000000    -0.178348   
H12      H      0.447866666667     0.910366666667     0.032950000000    -0.178348   
H12      H      0.447866666667     0.910366666667     0.532950000000    -0.178348   
H12      H      0.781200000000     0.243700000000     0.032950000000    -0.178348   
H12      H      0.781200000000     0.243700000000     0.532950000000    -0.178348   
H12      H      0.781200000000     0.577033333333     0.032950000000    -0.178348   
H12      H      0.781200000000     0.577033333333     0.532950000000    -0.178348   
H12      H      0.781200000000     0.910366666667     0.032950000000    -0.178348   
H12      H      0.781200000000     0.910366666667     0.532950000000    -0.178348   
H13      H      0.230400000000     0.139600000000     0.235200000000    -0.185385   
H13      H      0.230400000000     0.139600000000     0.735200000000    -0.185385   
H13      H      0.230400000000     0.472933333333     0.235200000000    -0.185385   
H13      H      0.230400000000     0.472933333333     0.735200000000    -0.185385   
H13      H      0.230400000000     0.806266666667     0.235200000000    -0.185385   
H13      H      0.230400000000     0.806266666667     0.735200000000    -0.185385   
H13      H      0.563733333333     0.139600000000     0.235200000000    -0.185385   
H13      H      0.563733333333     0.139600000000     0.735200000000    -0.185385   
H13      H      0.563733333333     0.472933333333     0.235200000000    -0.185385   
H13      H      0.563733333333     0.472933333333     0.735200000000    -0.185385   
H13      H      0.563733333333     0.806266666667     0.235200000000    -0.185385   
H13      H      0.563733333333     0.806266666667     0.735200000000    -0.185385   
H13      H      0.897066666667     0.139600000000     0.235200000000    -0.185385   
H13      H      0.897066666667     0.139600000000     0.735200000000    -0.185385   
H13      H      0.897066666667     0.472933333333     0.235200000000    -0.185385   
H13      H      0.897066666667     0.472933333333     0.735200000000    -0.185385   
H13      H      0.897066666667     0.806266666667     0.235200000000    -0.185385   
H13      H      0.897066666667     0.806266666667     0.735200000000    -0.185385   
H14      H      0.249433333333     0.109233333333     0.222950000000    -0.169136   
H14      H      0.249433333333     0.109233333333     0.722950000000    -0.169136   
H14      H      0.249433333333     0.442566666667     0.222950000000    -0.169136   
H14      H      0.249433333333     0.442566666667     0.722950000000    -0.169136   
H14      H      0.249433333333     0.775900000000     0.222950000000    -0.169136   
H14      H      0.249433333333     0.775900000000     0.722950000000    -0.169136   
H14      H      0.582766666667     0.109233333333     0.222950000000    -0.169136   
H14      H      0.582766666667     0.109233333333     0.722950000000    -0.169136   
H14      H      0.582766666667     0.442566666667     0.222950000000    -0.169136   
H14      H      0.582766666667     0.442566666667     0.722950000000    -0.169136   
H14      H      0.582766666667     0.775900000000     0.222950000000    -0.169136   
H14      H      0.582766666667     0.775900000000     0.722950000000    -0.169136   
H14      H      0.916100000000     0.109233333333     0.222950000000    -0.169136   
H14      H      0.916100000000     0.109233333333     0.722950000000    -0.169136   
H14      H      0.916100000000     0.442566666667     0.222950000000    -0.169136   
H14      H      0.916100000000     0.442566666667     0.722950000000    -0.169136   
H14      H      0.916100000000     0.775900000000     0.222950000000    -0.169136   
H14      H      0.916100000000     0.775900000000     0.722950000000    -0.169136   
H15      H      0.258433333333     0.278866666667     0.258150000000    -0.195997   
H15      H      0.258433333333     0.278866666667     0.758150000000    -0.195997   
H15      H      0.258433333333     0.612200000000     0.258150000000    -0.195997   
H15      H      0.258433333333     0.612200000000     0.758150000000    -0.195997   
H15      H      0.258433333333     0.945533333333     0.258150000000    -0.195997   
H15      H      0.258433333333     0.945533333333     0.758150000000    -0.195997   
H15      H      0.591766666667     0.278866666667     0.258150000000    -0.195997   
H15      H      0.591766666667     0.278866666667     0.758150000000    -0.195997   
H15      H      0.591766666667     0.612200000000     0.258150000000    -0.195997   
H15      H      0.591766666667     0.612200000000     0.758150000000    -0.195997   
H15      H      0.591766666667     0.945533333333     0.258150000000    -0.195997   
H15      H      0.591766666667     0.945533333333     0.758150000000    -0.195997   
H15      H      0.925100000000     0.278866666667     0.258150000000    -0.195997   
H15      H      0.925100000000     0.278866666667     0.758150000000    -0.195997   
H15      H      0.925100000000     0.612200000000     0.258150000000    -0.195997   
H15      H      0.925100000000     0.612200000000     0.758150000000    -0.195997   
H15      H      0.925100000000     0.945533333333     0.258150000000    -0.195997   
H15      H      0.925100000000     0.945533333333     0.758150000000    -0.195997   
H16      H      0.303700000000     0.231433333333     0.292500000000    -0.195999   
H16      H      0.303700000000     0.231433333333     0.792500000000    -0.195999   
H16      H      0.303700000000     0.564766666667     0.292500000000    -0.195999   
H16      H      0.303700000000     0.564766666667     0.792500000000    -0.195999   
H16      H      0.303700000000     0.898100000000     0.292500000000    -0.195999   
H16      H      0.303700000000     0.898100000000     0.792500000000    -0.195999   
H16      H      0.637033333333     0.231433333333     0.292500000000    -0.195999   
H16      H      0.637033333333     0.231433333333     0.792500000000    -0.195999   
H16      H      0.637033333333     0.564766666667     0.292500000000    -0.195999   
H16      H      0.637033333333     0.564766666667     0.792500000000    -0.195999   
H16      H      0.637033333333     0.898100000000     0.292500000000    -0.195999   
H16      H      0.637033333333     0.898100000000     0.792500000000    -0.195999   
H16      H      0.970366666667     0.231433333333     0.292500000000    -0.195999   
H16      H      0.970366666667     0.231433333333     0.792500000000    -0.195999   
H16      H      0.970366666667     0.564766666667     0.292500000000    -0.195999   
H16      H      0.970366666667     0.564766666667     0.792500000000    -0.195999   
H16      H      0.970366666667     0.898100000000     0.292500000000    -0.195999   
H16      H      0.970366666667     0.898100000000     0.792500000000    -0.195999   
H17      H      0.313200000000     0.299433333333     0.177450000000    -0.185385   
H17      H      0.313200000000     0.299433333333     0.677450000000    -0.185385   
H17      H      0.313200000000     0.632766666667     0.177450000000    -0.185385   
H17      H      0.313200000000     0.632766666667     0.677450000000    -0.185385   
H17      H      0.313200000000     0.966100000000     0.177450000000    -0.185385   
H17      H      0.313200000000     0.966100000000     0.677450000000    -0.185385   
H17      H      0.646533333333     0.299433333333     0.177450000000    -0.185385   
H17      H      0.646533333333     0.299433333333     0.677450000000    -0.185385   
H17      H      0.646533333333     0.632766666667     0.177450000000    -0.185385   
H17      H      0.646533333333     0.632766666667     0.677450000000    -0.185385   
H17      H      0.646533333333     0.966100000000     0.177450000000    -0.185385   
H17      H      0.646533333333     0.966100000000     0.677450000000    -0.185385   
H17      H      0.979866666667     0.299433333333     0.177450000000    -0.185385   
H17      H      0.979866666667     0.299433333333     0.677450000000    -0.185385   
H17      H      0.979866666667     0.632766666667     0.177450000000    -0.185385   
H17      H      0.979866666667     0.632766666667     0.677450000000    -0.185385   
H17      H      0.979866666667     0.966100000000     0.177450000000    -0.185385   
H17      H      0.979866666667     0.966100000000     0.677450000000    -0.185385   
H18      H      0.005366666667     0.241833333333     0.193450000000    -0.178347   
H18      H      0.005366666667     0.241833333333     0.693450000000    -0.178347   
H18      H      0.005366666667     0.575166666667     0.193450000000    -0.178347   
H18      H      0.005366666667     0.575166666667     0.693450000000    -0.178347   
H18      H      0.005366666667     0.908500000000     0.193450000000    -0.178347   
H18      H      0.005366666667     0.908500000000     0.693450000000    -0.178347   
H18      H      0.338700000000     0.241833333333     0.193450000000    -0.178347   
H18      H      0.338700000000     0.241833333333     0.693450000000    -0.178347   
H18      H      0.338700000000     0.575166666667     0.193450000000    -0.178347   
H18      H      0.338700000000     0.575166666667     0.693450000000    -0.178347   
H18      H      0.338700000000     0.908500000000     0.193450000000    -0.178347   
H18      H      0.338700000000     0.908500000000     0.693450000000    -0.178347   
H18      H      0.672033333333     0.241833333333     0.193450000000    -0.178347   
H18      H      0.672033333333     0.241833333333     0.693450000000    -0.178347   
H18      H      0.672033333333     0.575166666667     0.193450000000    -0.178347   
H18      H      0.672033333333     0.575166666667     0.693450000000    -0.178347   
H18      H      0.672033333333     0.908500000000     0.193450000000    -0.178347   
H18      H      0.672033333333     0.908500000000     0.693450000000    -0.178347   
H19      H      0.231933333333     0.245800000000     0.365200000000    -0.182336   
H19      H      0.231933333333     0.245800000000     0.865200000000    -0.182336   
H19      H      0.231933333333     0.579133333333     0.365200000000    -0.182336   
H19      H      0.231933333333     0.579133333333     0.865200000000    -0.182336   
H19      H      0.231933333333     0.912466666667     0.365200000000    -0.182336   
H19      H      0.231933333333     0.912466666667     0.865200000000    -0.182336   
H19      H      0.565266666667     0.245800000000     0.365200000000    -0.182336   
H19      H      0.565266666667     0.245800000000     0.865200000000    -0.182336   
H19      H      0.565266666667     0.579133333333     0.365200000000    -0.182336   
H19      H      0.565266666667     0.579133333333     0.865200000000    -0.182336   
H19      H      0.565266666667     0.912466666667     0.365200000000    -0.182336   
H19      H      0.565266666667     0.912466666667     0.865200000000    -0.182336   
H19      H      0.898600000000     0.245800000000     0.365200000000    -0.182336   
H19      H      0.898600000000     0.245800000000     0.865200000000    -0.182336   
H19      H      0.898600000000     0.579133333333     0.365200000000    -0.182336   
H19      H      0.898600000000     0.579133333333     0.865200000000    -0.182336   
H19      H      0.898600000000     0.912466666667     0.365200000000    -0.182336   
H19      H      0.898600000000     0.912466666667     0.865200000000    -0.182336   
H20      H      0.083900000000     0.224100000000     0.277050000000    -0.194514   
H20      H      0.083900000000     0.224100000000     0.777050000000    -0.194514   
H20      H      0.083900000000     0.557433333333     0.277050000000    -0.194514   
H20      H      0.083900000000     0.557433333333     0.777050000000    -0.194514   
H20      H      0.083900000000     0.890766666667     0.277050000000    -0.194514   
H20      H      0.083900000000     0.890766666667     0.777050000000    -0.194514   
H20      H      0.417233333333     0.224100000000     0.277050000000    -0.194514   
H20      H      0.417233333333     0.224100000000     0.777050000000    -0.194514   
H20      H      0.417233333333     0.557433333333     0.277050000000    -0.194514   
H20      H      0.417233333333     0.557433333333     0.777050000000    -0.194514   
H20      H      0.417233333333     0.890766666667     0.277050000000    -0.194514   
H20      H      0.417233333333     0.890766666667     0.777050000000    -0.194514   
H20      H      0.750566666667     0.224100000000     0.277050000000    -0.194514   
H20      H      0.750566666667     0.224100000000     0.777050000000    -0.194514   
H20      H      0.750566666667     0.557433333333     0.277050000000    -0.194514   
H20      H      0.750566666667     0.557433333333     0.777050000000    -0.194514   
H20      H      0.750566666667     0.890766666667     0.277050000000    -0.194514   
H20      H      0.750566666667     0.890766666667     0.777050000000    -0.194514   
H21      H      0.252433333333     0.101666666667     0.367750000000    -0.172567   
H21      H      0.252433333333     0.101666666667     0.867750000000    -0.172567   
H21      H      0.252433333333     0.435000000000     0.367750000000    -0.172567   
H21      H      0.252433333333     0.435000000000     0.867750000000    -0.172567   
H21      H      0.252433333333     0.768333333333     0.367750000000    -0.172567   
H21      H      0.252433333333     0.768333333333     0.867750000000    -0.172567   
H21      H      0.585766666667     0.101666666667     0.367750000000    -0.172567   
H21      H      0.585766666667     0.101666666667     0.867750000000    -0.172567   
H21      H      0.585766666667     0.435000000000     0.367750000000    -0.172567   
H21      H      0.585766666667     0.435000000000     0.867750000000    -0.172567   
H21      H      0.585766666667     0.768333333333     0.367750000000    -0.172567   
H21      H      0.585766666667     0.768333333333     0.867750000000    -0.172567   
H21      H      0.919100000000     0.101666666667     0.367750000000    -0.172567   
H21      H      0.919100000000     0.101666666667     0.867750000000    -0.172567   
H21      H      0.919100000000     0.435000000000     0.367750000000    -0.172567   
H21      H      0.919100000000     0.435000000000     0.867750000000    -0.172567   
H21      H      0.919100000000     0.768333333333     0.367750000000    -0.172567   
H21      H      0.919100000000     0.768333333333     0.867750000000    -0.172567   
H22      H      0.297866666667     0.053866666667     0.402550000000    -0.190438   
H22      H      0.297866666667     0.053866666667     0.902550000000    -0.190438   
H22      H      0.297866666667     0.387200000000     0.402550000000    -0.190438   
H22      H      0.297866666667     0.387200000000     0.902550000000    -0.190438   
H22      H      0.297866666667     0.720533333333     0.402550000000    -0.190438   
H22      H      0.297866666667     0.720533333333     0.902550000000    -0.190438   
H22      H      0.631200000000     0.053866666667     0.402550000000    -0.190438   
H22      H      0.631200000000     0.053866666667     0.902550000000    -0.190438   
H22      H      0.631200000000     0.387200000000     0.402550000000    -0.190438   
H22      H      0.631200000000     0.387200000000     0.902550000000    -0.190438   
H22      H      0.631200000000     0.720533333333     0.402550000000    -0.190438   
H22      H      0.631200000000     0.720533333333     0.902550000000    -0.190438   
H22      H      0.964533333333     0.053866666667     0.402550000000    -0.190438   
H22      H      0.964533333333     0.053866666667     0.902550000000    -0.190438   
H22      H      0.964533333333     0.387200000000     0.402550000000    -0.190438   
H22      H      0.964533333333     0.387200000000     0.902550000000    -0.190438   
H22      H      0.964533333333     0.720533333333     0.402550000000    -0.190438   
H22      H      0.964533333333     0.720533333333     0.902550000000    -0.190438   
H23      H      0.218800000000     0.089633333333     0.467050000000    -0.166049   
H23      H      0.218800000000     0.089633333333     0.967050000000    -0.166049   
H23      H      0.218800000000     0.422966666667     0.467050000000    -0.166049   
H23      H      0.218800000000     0.422966666667     0.967050000000    -0.166049   
H23      H      0.218800000000     0.756300000000     0.467050000000    -0.166049   
H23      H      0.218800000000     0.756300000000     0.967050000000    -0.166049   
H23      H      0.552133333333     0.089633333333     0.467050000000    -0.166049   
H23      H      0.552133333333     0.089633333333     0.967050000000    -0.166049   
H23      H      0.552133333333     0.422966666667     0.467050000000    -0.166049   
H23      H      0.552133333333     0.422966666667     0.967050000000    -0.166049   
H23      H      0.552133333333     0.756300000000     0.467050000000    -0.166049   
H23      H      0.552133333333     0.756300000000     0.967050000000    -0.166049   
H23      H      0.885466666667     0.089633333333     0.467050000000    -0.166049   
H23      H      0.885466666667     0.089633333333     0.967050000000    -0.166049   
H23      H      0.885466666667     0.422966666667     0.467050000000    -0.166049   
H23      H      0.885466666667     0.422966666667     0.967050000000    -0.166049   
H23      H      0.885466666667     0.756300000000     0.467050000000    -0.166049   
H23      H      0.885466666667     0.756300000000     0.967050000000    -0.166049   
H24      H      0.248200000000     0.032500000000     0.481250000000    -0.183222   
H24      H      0.248200000000     0.032500000000     0.981250000000    -0.183222   
H24      H      0.248200000000     0.365833333333     0.481250000000    -0.183222   
H24      H      0.248200000000     0.365833333333     0.981250000000    -0.183222   
H24      H      0.248200000000     0.699166666667     0.481250000000    -0.183222   
H24      H      0.248200000000     0.699166666667     0.981250000000    -0.183222   
H24      H      0.581533333333     0.032500000000     0.481250000000    -0.183222   
H24      H      0.581533333333     0.032500000000     0.981250000000    -0.183222   
H24      H      0.581533333333     0.365833333333     0.481250000000    -0.183222   
H24      H      0.581533333333     0.365833333333     0.981250000000    -0.183222   
H24      H      0.581533333333     0.699166666667     0.481250000000    -0.183222   
H24      H      0.581533333333     0.699166666667     0.981250000000    -0.183222   
H24      H      0.914866666667     0.032500000000     0.481250000000    -0.183222   
H24      H      0.914866666667     0.032500000000     0.981250000000    -0.183222   
H24      H      0.914866666667     0.365833333333     0.481250000000    -0.183222   
H24      H      0.914866666667     0.365833333333     0.981250000000    -0.183222   
H24      H      0.914866666667     0.699166666667     0.481250000000    -0.183222   
H24      H      0.914866666667     0.699166666667     0.981250000000    -0.183222   
H25      H      0.144933333333     0.100566666667     0.034950000000    -0.175017   
H25      H      0.144933333333     0.100566666667     0.534950000000    -0.175017   
H25      H      0.144933333333     0.433900000000     0.034950000000    -0.175017   
H25      H      0.144933333333     0.433900000000     0.534950000000    -0.175017   
H25      H      0.144933333333     0.767233333333     0.034950000000    -0.175017   
H25      H      0.144933333333     0.767233333333     0.534950000000    -0.175017   
H25      H      0.478266666667     0.100566666667     0.034950000000    -0.175017   
H25      H      0.478266666667     0.100566666667     0.534950000000    -0.175017   
H25      H      0.478266666667     0.433900000000     0.034950000000    -0.175017   
H25      H      0.478266666667     0.433900000000     0.534950000000    -0.175017   
H25      H      0.478266666667     0.767233333333     0.034950000000    -0.175017   
H25      H      0.478266666667     0.767233333333     0.534950000000    -0.175017   
H25      H      0.811600000000     0.100566666667     0.034950000000    -0.175017   
H25      H      0.811600000000     0.100566666667     0.534950000000    -0.175017   
H25      H      0.811600000000     0.433900000000     0.034950000000    -0.175017   
H25      H      0.811600000000     0.433900000000     0.534950000000    -0.175017   
H25      H      0.811600000000     0.767233333333     0.034950000000    -0.175017   
H25      H      0.811600000000     0.767233333333     0.534950000000    -0.175017   
H26      H      0.187800000000     0.053266666667     0.072800000000    -0.200153   
H26      H      0.187800000000     0.053266666667     0.572800000000    -0.200153   
H26      H      0.187800000000     0.386600000000     0.072800000000    -0.200153   
H26      H      0.187800000000     0.386600000000     0.572800000000    -0.200153   
H26      H      0.187800000000     0.719933333333     0.072800000000    -0.200153   
H26      H      0.187800000000     0.719933333333     0.572800000000    -0.200153   
H26      H      0.521133333333     0.053266666667     0.072800000000    -0.200153   
H26      H      0.521133333333     0.053266666667     0.572800000000    -0.200153   
H26      H      0.521133333333     0.386600000000     0.072800000000    -0.200153   
H26      H      0.521133333333     0.386600000000     0.572800000000    -0.200153   
H26      H      0.521133333333     0.719933333333     0.072800000000    -0.200153   
H26      H      0.521133333333     0.719933333333     0.572800000000    -0.200153   
H26      H      0.854466666667     0.053266666667     0.072800000000    -0.200153   
H26      H      0.854466666667     0.053266666667     0.572800000000    -0.200153   
H26      H      0.854466666667     0.386600000000     0.072800000000    -0.200153   
H26      H      0.854466666667     0.386600000000     0.572800000000    -0.200153   
H26      H      0.854466666667     0.719933333333     0.072800000000    -0.200153   
H26      H      0.854466666667     0.719933333333     0.572800000000    -0.200153   
H27      H      0.203800000000     0.303133333333     0.349100000000    -0.182341   
H27      H      0.203800000000     0.303133333333     0.849100000000    -0.182341   
H27      H      0.203800000000     0.636466666667     0.349100000000    -0.182341   
H27      H      0.203800000000     0.636466666667     0.849100000000    -0.182341   
H27      H      0.203800000000     0.969800000000     0.349100000000    -0.182341   
H27      H      0.203800000000     0.969800000000     0.849100000000    -0.182341   
H27      H      0.537133333333     0.303133333333     0.349100000000    -0.182341   
H27      H      0.537133333333     0.303133333333     0.849100000000    -0.182341   
H27      H      0.537133333333     0.636466666667     0.349100000000    -0.182341   
H27      H      0.537133333333     0.636466666667     0.849100000000    -0.182341   
H27      H      0.537133333333     0.969800000000     0.349100000000    -0.182341   
H27      H      0.537133333333     0.969800000000     0.849100000000    -0.182341   
H27      H      0.870466666667     0.303133333333     0.349100000000    -0.182341   
H27      H      0.870466666667     0.303133333333     0.849100000000    -0.182341   
H27      H      0.870466666667     0.636466666667     0.349100000000    -0.182341   
H27      H      0.870466666667     0.636466666667     0.849100000000    -0.182341   
H27      H      0.870466666667     0.969800000000     0.349100000000    -0.182341   
H27      H      0.870466666667     0.969800000000     0.849100000000    -0.182341   
H28      H      0.102933333333     0.193733333333     0.264800000000    -0.194518   
H28      H      0.102933333333     0.193733333333     0.764800000000    -0.194518   
H28      H      0.102933333333     0.527066666667     0.264800000000    -0.194518   
H28      H      0.102933333333     0.527066666667     0.764800000000    -0.194518   
H28      H      0.102933333333     0.860400000000     0.264800000000    -0.194518   
H28      H      0.102933333333     0.860400000000     0.764800000000    -0.194518   
H28      H      0.436266666667     0.193733333333     0.264800000000    -0.194518   
H28      H      0.436266666667     0.193733333333     0.764800000000    -0.194518   
H28      H      0.436266666667     0.527066666667     0.264800000000    -0.194518   
H28      H      0.436266666667     0.527066666667     0.764800000000    -0.194518   
H28      H      0.436266666667     0.860400000000     0.264800000000    -0.194518   
H28      H      0.436266666667     0.860400000000     0.764800000000    -0.194518   
H28      H      0.769600000000     0.193733333333     0.264800000000    -0.194518   
H28      H      0.769600000000     0.193733333333     0.764800000000    -0.194518   
H28      H      0.769600000000     0.527066666667     0.264800000000    -0.194518   
H28      H      0.769600000000     0.527066666667     0.764800000000    -0.194518   
H28      H      0.769600000000     0.860400000000     0.264800000000    -0.194518   
H28      H      0.769600000000     0.860400000000     0.764800000000    -0.194518   
N1       N      0.276200000000     0.305800000000     0.141100000000    -0.169137   
N1       N      0.276200000000     0.305800000000     0.641100000000    -0.169137   
N1       N      0.276200000000     0.639133333333     0.141100000000    -0.169137   
N1       N      0.276200000000     0.639133333333     0.641100000000    -0.169137   
N1       N      0.276200000000     0.972466666667     0.141100000000    -0.169137   
N1       N      0.276200000000     0.972466666667     0.641100000000    -0.169137   
N1       N      0.609533333333     0.305800000000     0.141100000000    -0.169137   
N1       N      0.609533333333     0.305800000000     0.641100000000    -0.169137   
N1       N      0.609533333333     0.639133333333     0.141100000000    -0.169137   
N1       N      0.609533333333     0.639133333333     0.641100000000    -0.169137   
N1       N      0.609533333333     0.972466666667     0.141100000000    -0.169137   
N1       N      0.609533333333     0.972466666667     0.641100000000    -0.169137   
N1       N      0.942866666667     0.305800000000     0.141100000000    -0.169137   
N1       N      0.942866666667     0.305800000000     0.641100000000    -0.169137   
N1       N      0.942866666667     0.639133333333     0.141100000000    -0.169137   
N1       N      0.942866666667     0.639133333333     0.641100000000    -0.169137   
N1       N      0.942866666667     0.972466666667     0.141100000000    -0.169137   
N1       N      0.942866666667     0.972466666667     0.641100000000    -0.169137   
N2       N      0.305600000000     0.236300000000     0.162650000000    -0.19043    
N2       N      0.305600000000     0.236300000000     0.662650000000    -0.19043    
N2       N      0.305600000000     0.569633333333     0.162650000000    -0.19043    
N2       N      0.305600000000     0.569633333333     0.662650000000    -0.19043    
N2       N      0.305600000000     0.902966666667     0.162650000000    -0.19043    
N2       N      0.305600000000     0.902966666667     0.662650000000    -0.19043    
N2       N      0.638933333333     0.236300000000     0.162650000000    -0.19043    
N2       N      0.638933333333     0.236300000000     0.662650000000    -0.19043    
N2       N      0.638933333333     0.569633333333     0.162650000000    -0.19043    
N2       N      0.638933333333     0.569633333333     0.662650000000    -0.19043    
N2       N      0.638933333333     0.902966666667     0.162650000000    -0.19043    
N2       N      0.638933333333     0.902966666667     0.662650000000    -0.19043    
N2       N      0.972266666667     0.236300000000     0.162650000000    -0.19043    
N2       N      0.972266666667     0.236300000000     0.662650000000    -0.19043    
N2       N      0.972266666667     0.569633333333     0.162650000000    -0.19043    
N2       N      0.972266666667     0.569633333333     0.662650000000    -0.19043    
N2       N      0.972266666667     0.902966666667     0.162650000000    -0.19043    
N2       N      0.972266666667     0.902966666667     0.662650000000    -0.19043    
N3       N      0.236800000000     0.256166666667     0.235700000000    -0.166043   
N3       N      0.236800000000     0.256166666667     0.735700000000    -0.166043   
N3       N      0.236800000000     0.589500000000     0.235700000000    -0.166043   
N3       N      0.236800000000     0.589500000000     0.735700000000    -0.166043   
N3       N      0.236800000000     0.922833333333     0.235700000000    -0.166043   
N3       N      0.236800000000     0.922833333333     0.735700000000    -0.166043   
N3       N      0.570133333333     0.256166666667     0.235700000000    -0.166043   
N3       N      0.570133333333     0.256166666667     0.735700000000    -0.166043   
N3       N      0.570133333333     0.589500000000     0.235700000000    -0.166043   
N3       N      0.570133333333     0.589500000000     0.735700000000    -0.166043   
N3       N      0.570133333333     0.922833333333     0.235700000000    -0.166043   
N3       N      0.570133333333     0.922833333333     0.735700000000    -0.166043   
N3       N      0.903466666667     0.256166666667     0.235700000000    -0.166043   
N3       N      0.903466666667     0.256166666667     0.735700000000    -0.166043   
N3       N      0.903466666667     0.589500000000     0.235700000000    -0.166043   
N3       N      0.903466666667     0.589500000000     0.735700000000    -0.166043   
N3       N      0.903466666667     0.922833333333     0.235700000000    -0.166043   
N3       N      0.903466666667     0.922833333333     0.735700000000    -0.166043   
N4       N      0.293200000000     0.198433333333     0.275800000000    -0.183222   
N4       N      0.293200000000     0.198433333333     0.775800000000    -0.183222   
N4       N      0.293200000000     0.531766666667     0.275800000000    -0.183222   
N4       N      0.293200000000     0.531766666667     0.775800000000    -0.183222   
N4       N      0.293200000000     0.865100000000     0.275800000000    -0.183222   
N4       N      0.293200000000     0.865100000000     0.775800000000    -0.183222   
N4       N      0.626533333333     0.198433333333     0.275800000000    -0.183222   
N4       N      0.626533333333     0.198433333333     0.775800000000    -0.183222   
N4       N      0.626533333333     0.531766666667     0.275800000000    -0.183222   
N4       N      0.626533333333     0.531766666667     0.775800000000    -0.183222   
N4       N      0.626533333333     0.865100000000     0.275800000000    -0.183222   
N4       N      0.626533333333     0.865100000000     0.775800000000    -0.183222   
N4       N      0.959866666667     0.198433333333     0.275800000000    -0.183222   
N4       N      0.959866666667     0.198433333333     0.775800000000    -0.183222   
N4       N      0.959866666667     0.531766666667     0.275800000000    -0.183222   
N4       N      0.959866666667     0.531766666667     0.775800000000    -0.183222   
N4       N      0.959866666667     0.865100000000     0.275800000000    -0.183222   
N4       N      0.959866666667     0.865100000000     0.775800000000    -0.183222   
N5       N      0.040133333333     0.134900000000     0.224200000000    -0.175019   
N5       N      0.040133333333     0.134900000000     0.724200000000    -0.175019   
N5       N      0.040133333333     0.468233333333     0.224200000000    -0.175019   
N5       N      0.040133333333     0.468233333333     0.724200000000    -0.175019   
N5       N      0.040133333333     0.801566666667     0.224200000000    -0.175019   
N5       N      0.040133333333     0.801566666667     0.724200000000    -0.175019   
N5       N      0.373466666667     0.134900000000     0.224200000000    -0.175019   
N5       N      0.373466666667     0.134900000000     0.724200000000    -0.175019   
N5       N      0.373466666667     0.468233333333     0.224200000000    -0.175019   
N5       N      0.373466666667     0.468233333333     0.724200000000    -0.175019   
N5       N      0.373466666667     0.801566666667     0.224200000000    -0.175019   
N5       N      0.373466666667     0.801566666667     0.724200000000    -0.175019   
N5       N      0.706800000000     0.134900000000     0.224200000000    -0.175019   
N5       N      0.706800000000     0.134900000000     0.724200000000    -0.175019   
N5       N      0.706800000000     0.468233333333     0.224200000000    -0.175019   
N5       N      0.706800000000     0.468233333333     0.724200000000    -0.175019   
N5       N      0.706800000000     0.801566666667     0.224200000000    -0.175019   
N5       N      0.706800000000     0.801566666667     0.724200000000    -0.175019   
N6       N      0.027733333333     0.097033333333     0.337350000000    -0.200149   
N6       N      0.027733333333     0.097033333333     0.837350000000    -0.200149   
N6       N      0.027733333333     0.430366666667     0.337350000000    -0.200149   
N6       N      0.027733333333     0.430366666667     0.837350000000    -0.200149   
N6       N      0.027733333333     0.763700000000     0.337350000000    -0.200149   
N6       N      0.027733333333     0.763700000000     0.837350000000    -0.200149   
N6       N      0.361066666667     0.097033333333     0.337350000000    -0.200149   
N6       N      0.361066666667     0.097033333333     0.837350000000    -0.200149   
N6       N      0.361066666667     0.430366666667     0.337350000000    -0.200149   
N6       N      0.361066666667     0.430366666667     0.837350000000    -0.200149   
N6       N      0.361066666667     0.763700000000     0.337350000000    -0.200149   
N6       N      0.361066666667     0.763700000000     0.837350000000    -0.200149   
N6       N      0.694400000000     0.097033333333     0.337350000000    -0.200149   
N6       N      0.694400000000     0.097033333333     0.837350000000    -0.200149   
N6       N      0.694400000000     0.430366666667     0.337350000000    -0.200149   
N6       N      0.694400000000     0.430366666667     0.837350000000    -0.200149   
N6       N      0.694400000000     0.763700000000     0.337350000000    -0.200149   
N6       N      0.694400000000     0.763700000000     0.837350000000    -0.200149   
N7       N      0.057133333333     0.027533333333     0.358900000000    -0.172555   
N7       N      0.057133333333     0.027533333333     0.858900000000    -0.172555   
N7       N      0.057133333333     0.360866666667     0.358900000000    -0.172555   
N7       N      0.057133333333     0.360866666667     0.858900000000    -0.172555   
N7       N      0.057133333333     0.694200000000     0.358900000000    -0.172555   
N7       N      0.057133333333     0.694200000000     0.858900000000    -0.172555   
N7       N      0.390466666667     0.027533333333     0.358900000000    -0.172555   
N7       N      0.390466666667     0.027533333333     0.858900000000    -0.172555   
N7       N      0.390466666667     0.360866666667     0.358900000000    -0.172555   
N7       N      0.390466666667     0.360866666667     0.858900000000    -0.172555   
N7       N      0.390466666667     0.694200000000     0.358900000000    -0.172555   
N7       N      0.390466666667     0.694200000000     0.858900000000    -0.172555   
N7       N      0.723800000000     0.027533333333     0.358900000000    -0.172555   
N7       N      0.723800000000     0.027533333333     0.858900000000    -0.172555   
N7       N      0.723800000000     0.360866666667     0.358900000000    -0.172555   
N7       N      0.723800000000     0.360866666667     0.858900000000    -0.172555   
N7       N      0.723800000000     0.694200000000     0.358900000000    -0.172555   
N7       N      0.723800000000     0.694200000000     0.858900000000    -0.172555   
N8       N      0.123666666667     0.257500000000     0.405050000000    -0.44701    
N8       N      0.123666666667     0.257500000000     0.905050000000    -0.44701    
N8       N      0.123666666667     0.590833333333     0.405050000000    -0.44701    
N8       N      0.123666666667     0.590833333333     0.905050000000    -0.44701    
N8       N      0.123666666667     0.924166666667     0.405050000000    -0.44701    
N8       N      0.123666666667     0.924166666667     0.905050000000    -0.44701    
N8       N      0.457000000000     0.257500000000     0.405050000000    -0.44701    
N8       N      0.457000000000     0.257500000000     0.905050000000    -0.44701    
N8       N      0.457000000000     0.590833333333     0.405050000000    -0.44701    
N8       N      0.457000000000     0.590833333333     0.905050000000    -0.44701    
N8       N      0.457000000000     0.924166666667     0.405050000000    -0.44701    
N8       N      0.457000000000     0.924166666667     0.905050000000    -0.44701    
N8       N      0.790333333333     0.257500000000     0.405050000000    -0.44701    
N8       N      0.790333333333     0.257500000000     0.905050000000    -0.44701    
N8       N      0.790333333333     0.590833333333     0.405050000000    -0.44701    
N8       N      0.790333333333     0.590833333333     0.905050000000    -0.44701    
N8       N      0.790333333333     0.924166666667     0.405050000000    -0.44701    
N8       N      0.790333333333     0.924166666667     0.905050000000    -0.44701    
N9       N      0.177633333333     0.200333333333     0.446850000000    -0.75186    
N9       N      0.177633333333     0.200333333333     0.946850000000    -0.75186    
N9       N      0.177633333333     0.533666666667     0.446850000000    -0.75186    
N9       N      0.177633333333     0.533666666667     0.946850000000    -0.75186    
N9       N      0.177633333333     0.867000000000     0.446850000000    -0.75186    
N9       N      0.177633333333     0.867000000000     0.946850000000    -0.75186    
N9       N      0.510966666667     0.200333333333     0.446850000000    -0.75186    
N9       N      0.510966666667     0.200333333333     0.946850000000    -0.75186    
N9       N      0.510966666667     0.533666666667     0.446850000000    -0.75186    
N9       N      0.510966666667     0.533666666667     0.946850000000    -0.75186    
N9       N      0.510966666667     0.867000000000     0.446850000000    -0.75186    
N9       N      0.510966666667     0.867000000000     0.946850000000    -0.75186    
N9       N      0.844300000000     0.200333333333     0.446850000000    -0.75186    
N9       N      0.844300000000     0.200333333333     0.946850000000    -0.75186    
N9       N      0.844300000000     0.533666666667     0.446850000000    -0.75186    
N9       N      0.844300000000     0.533666666667     0.946850000000    -0.75186    
N9       N      0.844300000000     0.867000000000     0.446850000000    -0.75186    
N9       N      0.844300000000     0.867000000000     0.946850000000    -0.75186    
N10      N      0.167133333333     0.025833333333     0.185100000000    -0.496965   
N10      N      0.167133333333     0.025833333333     0.685100000000    -0.496965   
N10      N      0.167133333333     0.359166666667     0.185100000000    -0.496965   
N10      N      0.167133333333     0.359166666667     0.685100000000    -0.496965   
N10      N      0.167133333333     0.692500000000     0.185100000000    -0.496965   
N10      N      0.167133333333     0.692500000000     0.685100000000    -0.496965   
N10      N      0.500466666667     0.025833333333     0.185100000000    -0.496965   
N10      N      0.500466666667     0.025833333333     0.685100000000    -0.496965   
N10      N      0.500466666667     0.359166666667     0.185100000000    -0.496965   
N10      N      0.500466666667     0.359166666667     0.685100000000    -0.496965   
N10      N      0.500466666667     0.692500000000     0.185100000000    -0.496965   
N10      N      0.500466666667     0.692500000000     0.685100000000    -0.496965   
N10      N      0.833800000000     0.025833333333     0.185100000000    -0.496965   
N10      N      0.833800000000     0.025833333333     0.685100000000    -0.496965   
N10      N      0.833800000000     0.359166666667     0.185100000000    -0.496965   
N10      N      0.833800000000     0.359166666667     0.685100000000    -0.496965   
N10      N      0.833800000000     0.692500000000     0.185100000000    -0.496965   
N10      N      0.833800000000     0.692500000000     0.685100000000    -0.496965   
N11      N      0.133100000000     0.095300000000     0.165450000000    -0.550015   
N11      N      0.133100000000     0.095300000000     0.665450000000    -0.550015   
N11      N      0.133100000000     0.428633333333     0.165450000000    -0.550015   
N11      N      0.133100000000     0.428633333333     0.665450000000    -0.550015   
N11      N      0.133100000000     0.761966666667     0.165450000000    -0.550015   
N11      N      0.133100000000     0.761966666667     0.665450000000    -0.550015   
N11      N      0.466433333333     0.095300000000     0.165450000000    -0.550015   
N11      N      0.466433333333     0.095300000000     0.665450000000    -0.550015   
N11      N      0.466433333333     0.428633333333     0.165450000000    -0.550015   
N11      N      0.466433333333     0.428633333333     0.665450000000    -0.550015   
N11      N      0.466433333333     0.761966666667     0.165450000000    -0.550015   
N11      N      0.466433333333     0.761966666667     0.665450000000    -0.550015   
N11      N      0.799766666667     0.095300000000     0.165450000000    -0.550015   
N11      N      0.799766666667     0.095300000000     0.665450000000    -0.550015   
N11      N      0.799766666667     0.428633333333     0.165450000000    -0.550015   
N11      N      0.799766666667     0.428633333333     0.665450000000    -0.550015   
N11      N      0.799766666667     0.761966666667     0.165450000000    -0.550015   
N11      N      0.799766666667     0.761966666667     0.665450000000    -0.550015   
N12      N      0.068033333333     0.199466666667     0.116500000000    -0.582588   
N12      N      0.068033333333     0.199466666667     0.616500000000    -0.582588   
N12      N      0.068033333333     0.532800000000     0.116500000000    -0.582588   
N12      N      0.068033333333     0.532800000000     0.616500000000    -0.582588   
N12      N      0.068033333333     0.866133333333     0.116500000000    -0.582588   
N12      N      0.068033333333     0.866133333333     0.616500000000    -0.582588   
N12      N      0.401366666667     0.199466666667     0.116500000000    -0.582588   
N12      N      0.401366666667     0.199466666667     0.616500000000    -0.582588   
N12      N      0.401366666667     0.532800000000     0.116500000000    -0.582588   
N12      N      0.401366666667     0.532800000000     0.616500000000    -0.582588   
N12      N      0.401366666667     0.866133333333     0.116500000000    -0.582588   
N12      N      0.401366666667     0.866133333333     0.616500000000    -0.582588   
N12      N      0.734700000000     0.199466666667     0.116500000000    -0.582588   
N12      N      0.734700000000     0.199466666667     0.616500000000    -0.582588   
N12      N      0.734700000000     0.532800000000     0.116500000000    -0.582588   
N12      N      0.734700000000     0.532800000000     0.616500000000    -0.582588   
N12      N      0.734700000000     0.866133333333     0.116500000000    -0.582588   
N12      N      0.734700000000     0.866133333333     0.616500000000    -0.582588   
N13      N      0.014833333333     0.257133333333     0.072950000000    -0.700702   
N13      N      0.014833333333     0.257133333333     0.572950000000    -0.700702   
N13      N      0.014833333333     0.590466666667     0.072950000000    -0.700702   
N13      N      0.014833333333     0.590466666667     0.572950000000    -0.700702   
N13      N      0.014833333333     0.923800000000     0.072950000000    -0.700702   
N13      N      0.014833333333     0.923800000000     0.572950000000    -0.700702   
N13      N      0.348166666667     0.257133333333     0.072950000000    -0.700702   
N13      N      0.348166666667     0.257133333333     0.572950000000    -0.700702   
N13      N      0.348166666667     0.590466666667     0.072950000000    -0.700702   
N13      N      0.348166666667     0.590466666667     0.572950000000    -0.700702   
N13      N      0.348166666667     0.923800000000     0.072950000000    -0.700702   
N13      N      0.348166666667     0.923800000000     0.572950000000    -0.700702   
N13      N      0.681500000000     0.257133333333     0.072950000000    -0.700702   
N13      N      0.681500000000     0.257133333333     0.572950000000    -0.700702   
N13      N      0.681500000000     0.590466666667     0.072950000000    -0.700702   
N13      N      0.681500000000     0.590466666667     0.572950000000    -0.700702   
N13      N      0.681500000000     0.923800000000     0.072950000000    -0.700702   
N13      N      0.681500000000     0.923800000000     0.572950000000    -0.700702   
N14      N      0.084066666667     0.235833333333     0.000350000000    -0.465885   
N14      N      0.084066666667     0.235833333333     0.500350000000    -0.465885   
N14      N      0.084066666667     0.569166666667     0.000350000000    -0.465885   
N14      N      0.084066666667     0.569166666667     0.500350000000    -0.465885   
N14      N      0.084066666667     0.902500000000     0.000350000000    -0.465885   
N14      N      0.084066666667     0.902500000000     0.500350000000    -0.465885   
N14      N      0.417400000000     0.235833333333     0.000350000000    -0.465885   
N14      N      0.417400000000     0.235833333333     0.500350000000    -0.465885   
N14      N      0.417400000000     0.569166666667     0.000350000000    -0.465885   
N14      N      0.417400000000     0.569166666667     0.500350000000    -0.465885   
N14      N      0.417400000000     0.902500000000     0.000350000000    -0.465885   
N14      N      0.417400000000     0.902500000000     0.500350000000    -0.465885   
N14      N      0.750733333333     0.235833333333     0.000350000000    -0.465885   
N14      N      0.750733333333     0.235833333333     0.500350000000    -0.465885   
N14      N      0.750733333333     0.569166666667     0.000350000000    -0.465885   
N14      N      0.750733333333     0.569166666667     0.500350000000    -0.465885   
N14      N      0.750733333333     0.902500000000     0.000350000000    -0.465885   
N14      N      0.750733333333     0.902500000000     0.500350000000    -0.465885   
N15      N      0.048600000000     0.305433333333     0.482800000000    -0.583832   
N15      N      0.048600000000     0.305433333333     0.982800000000    -0.583832   
N15      N      0.048600000000     0.638766666667     0.482800000000    -0.583832   
N15      N      0.048600000000     0.638766666667     0.982800000000    -0.583832   
N15      N      0.048600000000     0.972100000000     0.482800000000    -0.583832   
N15      N      0.048600000000     0.972100000000     0.982800000000    -0.583832   
N15      N      0.381933333333     0.305433333333     0.482800000000    -0.583832   
N15      N      0.381933333333     0.305433333333     0.982800000000    -0.583832   
N15      N      0.381933333333     0.638766666667     0.482800000000    -0.583832   
N15      N      0.381933333333     0.638766666667     0.982800000000    -0.583832   
N15      N      0.381933333333     0.972100000000     0.482800000000    -0.583832   
N15      N      0.381933333333     0.972100000000     0.982800000000    -0.583832   
N15      N      0.715266666667     0.305433333333     0.482800000000    -0.583832   
N15      N      0.715266666667     0.305433333333     0.982800000000    -0.583832   
N15      N      0.715266666667     0.638766666667     0.482800000000    -0.583832   
N15      N      0.715266666667     0.638766666667     0.982800000000    -0.583832   
N15      N      0.715266666667     0.972100000000     0.482800000000    -0.583832   
N15      N      0.715266666667     0.972100000000     0.982800000000    -0.583832   
N16      N      0.209666666667     0.075833333333     0.094950000000    -0.588205   
N16      N      0.209666666667     0.075833333333     0.594950000000    -0.588205   
N16      N      0.209666666667     0.409166666667     0.094950000000    -0.588205   
N16      N      0.209666666667     0.409166666667     0.594950000000    -0.588205   
N16      N      0.209666666667     0.742500000000     0.094950000000    -0.588205   
N16      N      0.209666666667     0.742500000000     0.594950000000    -0.588205   
N16      N      0.543000000000     0.075833333333     0.094950000000    -0.588205   
N16      N      0.543000000000     0.075833333333     0.594950000000    -0.588205   
N16      N      0.543000000000     0.409166666667     0.094950000000    -0.588205   
N16      N      0.543000000000     0.409166666667     0.594950000000    -0.588205   
N16      N      0.543000000000     0.742500000000     0.094950000000    -0.588205   
N16      N      0.543000000000     0.742500000000     0.594950000000    -0.588205   
N16      N      0.876333333333     0.075833333333     0.094950000000    -0.588205   
N16      N      0.876333333333     0.075833333333     0.594950000000    -0.588205   
N16      N      0.876333333333     0.409166666667     0.094950000000    -0.588205   
N16      N      0.876333333333     0.409166666667     0.594950000000    -0.588205   
N16      N      0.876333333333     0.742500000000     0.094950000000    -0.588205   
N16      N      0.876333333333     0.742500000000     0.594950000000    -0.588205   
N17      N      0.155700000000     0.133000000000     0.053150000000    -0.68432    
N17      N      0.155700000000     0.133000000000     0.553150000000    -0.68432    
N17      N      0.155700000000     0.466333333333     0.053150000000    -0.68432    
N17      N      0.155700000000     0.466333333333     0.553150000000    -0.68432    
N17      N      0.155700000000     0.799666666667     0.053150000000    -0.68432    
N17      N      0.155700000000     0.799666666667     0.553150000000    -0.68432    
N17      N      0.489033333333     0.133000000000     0.053150000000    -0.68432    
N17      N      0.489033333333     0.133000000000     0.553150000000    -0.68432    
N17      N      0.489033333333     0.466333333333     0.053150000000    -0.68432    
N17      N      0.489033333333     0.466333333333     0.553150000000    -0.68432    
N17      N      0.489033333333     0.799666666667     0.053150000000    -0.68432    
N17      N      0.489033333333     0.799666666667     0.553150000000    -0.68432    
N17      N      0.822366666667     0.133000000000     0.053150000000    -0.68432    
N17      N      0.822366666667     0.133000000000     0.553150000000    -0.68432    
N17      N      0.822366666667     0.466333333333     0.053150000000    -0.68432    
N17      N      0.822366666667     0.466333333333     0.553150000000    -0.68432    
N17      N      0.822366666667     0.799666666667     0.053150000000    -0.68432    
N17      N      0.822366666667     0.799666666667     0.553150000000    -0.68432    
N18      N      0.096533333333     0.077166666667     0.264300000000    -0.493595   
N18      N      0.096533333333     0.077166666667     0.764300000000    -0.493595   
N18      N      0.096533333333     0.410500000000     0.264300000000    -0.493595   
N18      N      0.096533333333     0.410500000000     0.764300000000    -0.493595   
N18      N      0.096533333333     0.743833333333     0.264300000000    -0.493595   
N18      N      0.096533333333     0.743833333333     0.764300000000    -0.493595   
N18      N      0.429866666667     0.077166666667     0.264300000000    -0.493595   
N18      N      0.429866666667     0.077166666667     0.764300000000    -0.493595   
N18      N      0.429866666667     0.410500000000     0.264300000000    -0.493595   
N18      N      0.429866666667     0.410500000000     0.764300000000    -0.493595   
N18      N      0.429866666667     0.743833333333     0.264300000000    -0.493595   
N18      N      0.429866666667     0.743833333333     0.764300000000    -0.493595   
N18      N      0.763200000000     0.077166666667     0.264300000000    -0.493595   
N18      N      0.763200000000     0.077166666667     0.764300000000    -0.493595   
N18      N      0.763200000000     0.410500000000     0.264300000000    -0.493595   
N18      N      0.763200000000     0.410500000000     0.764300000000    -0.493595   
N18      N      0.763200000000     0.743833333333     0.264300000000    -0.493595   
N18      N      0.763200000000     0.743833333333     0.764300000000    -0.493595   
N19      N      0.200233333333     0.238033333333     0.334550000000    -0.698839   
N19      N      0.200233333333     0.238033333333     0.834550000000    -0.698839   
N19      N      0.200233333333     0.571366666667     0.334550000000    -0.698839   
N19      N      0.200233333333     0.571366666667     0.834550000000    -0.698839   
N19      N      0.200233333333     0.904700000000     0.334550000000    -0.698839   
N19      N      0.200233333333     0.904700000000     0.834550000000    -0.698839   
N19      N      0.533566666667     0.238033333333     0.334550000000    -0.698839   
N19      N      0.533566666667     0.238033333333     0.834550000000    -0.698839   
N19      N      0.533566666667     0.571366666667     0.334550000000    -0.698839   
N19      N      0.533566666667     0.571366666667     0.834550000000    -0.698839   
N19      N      0.533566666667     0.904700000000     0.334550000000    -0.698839   
N19      N      0.533566666667     0.904700000000     0.834550000000    -0.698839   
N19      N      0.866900000000     0.238033333333     0.334550000000    -0.698839   
N19      N      0.866900000000     0.238033333333     0.834550000000    -0.698839   
N19      N      0.866900000000     0.571366666667     0.334550000000    -0.698839   
N19      N      0.866900000000     0.571366666667     0.834550000000    -0.698839   
N19      N      0.866900000000     0.904700000000     0.334550000000    -0.698839   
N19      N      0.866900000000     0.904700000000     0.834550000000    -0.698839   
N20      N      0.265300000000     0.133866666667     0.383500000000    -0.675572   
N20      N      0.265300000000     0.133866666667     0.883500000000    -0.675572   
N20      N      0.265300000000     0.467200000000     0.383500000000    -0.675572   
N20      N      0.265300000000     0.467200000000     0.883500000000    -0.675572   
N20      N      0.265300000000     0.800533333333     0.383500000000    -0.675572   
N20      N      0.265300000000     0.800533333333     0.883500000000    -0.675572   
N20      N      0.598633333333     0.133866666667     0.383500000000    -0.675572   
N20      N      0.598633333333     0.133866666667     0.883500000000    -0.675572   
N20      N      0.598633333333     0.467200000000     0.383500000000    -0.675572   
N20      N      0.598633333333     0.467200000000     0.883500000000    -0.675572   
N20      N      0.598633333333     0.800533333333     0.383500000000    -0.675572   
N20      N      0.598633333333     0.800533333333     0.883500000000    -0.675572   
N20      N      0.931966666667     0.133866666667     0.383500000000    -0.675572   
N20      N      0.931966666667     0.133866666667     0.883500000000    -0.675572   
N20      N      0.931966666667     0.467200000000     0.383500000000    -0.675572   
N20      N      0.931966666667     0.467200000000     0.883500000000    -0.675572   
N20      N      0.931966666667     0.800533333333     0.383500000000    -0.675572   
N20      N      0.931966666667     0.800533333333     0.883500000000    -0.675572   
N21      N      0.318500000000     0.076200000000     0.427050000000    -0.529202   
N21      N      0.318500000000     0.076200000000     0.927050000000    -0.529202   
N21      N      0.318500000000     0.409533333333     0.427050000000    -0.529202   
N21      N      0.318500000000     0.409533333333     0.927050000000    -0.529202   
N21      N      0.318500000000     0.742866666667     0.427050000000    -0.529202   
N21      N      0.318500000000     0.742866666667     0.927050000000    -0.529202   
N21      N      0.651833333333     0.076200000000     0.427050000000    -0.529202   
N21      N      0.651833333333     0.076200000000     0.927050000000    -0.529202   
N21      N      0.651833333333     0.409533333333     0.427050000000    -0.529202   
N21      N      0.651833333333     0.409533333333     0.927050000000    -0.529202   
N21      N      0.651833333333     0.742866666667     0.427050000000    -0.529202   
N21      N      0.651833333333     0.742866666667     0.927050000000    -0.529202   
N21      N      0.985166666667     0.076200000000     0.427050000000    -0.529202   
N21      N      0.985166666667     0.076200000000     0.927050000000    -0.529202   
N21      N      0.985166666667     0.409533333333     0.427050000000    -0.529202   
N21      N      0.985166666667     0.409533333333     0.927050000000    -0.529202   
N21      N      0.985166666667     0.742866666667     0.427050000000    -0.529202   
N21      N      0.985166666667     0.742866666667     0.927050000000    -0.529202   
N22      N      0.249266666667     0.097500000000     0.499650000000    -0.694028   
N22      N      0.249266666667     0.097500000000     0.999650000000    -0.694028   
N22      N      0.249266666667     0.430833333333     0.499650000000    -0.694028   
N22      N      0.249266666667     0.430833333333     0.999650000000    -0.694028   
N22      N      0.249266666667     0.764166666667     0.499650000000    -0.694028   
N22      N      0.249266666667     0.764166666667     0.999650000000    -0.694028   
N22      N      0.582600000000     0.097500000000     0.499650000000    -0.694028   
N22      N      0.582600000000     0.097500000000     0.999650000000    -0.694028   
N22      N      0.582600000000     0.430833333333     0.499650000000    -0.694028   
N22      N      0.582600000000     0.430833333333     0.999650000000    -0.694028   
N22      N      0.582600000000     0.764166666667     0.499650000000    -0.694028   
N22      N      0.582600000000     0.764166666667     0.999650000000    -0.694028   
N22      N      0.915933333333     0.097500000000     0.499650000000    -0.694028   
N22      N      0.915933333333     0.097500000000     0.999650000000    -0.694028   
N22      N      0.915933333333     0.430833333333     0.499650000000    -0.694028   
N22      N      0.915933333333     0.430833333333     0.999650000000    -0.694028   
N22      N      0.915933333333     0.764166666667     0.499650000000    -0.694028   
N22      N      0.915933333333     0.764166666667     0.999650000000    -0.694028   
N23      N      0.284733333333     0.027900000000     0.017200000000    -0.560545   
N23      N      0.284733333333     0.027900000000     0.517200000000    -0.560545   
N23      N      0.284733333333     0.361233333333     0.017200000000    -0.560545   
N23      N      0.284733333333     0.361233333333     0.517200000000    -0.560545   
N23      N      0.284733333333     0.694566666667     0.017200000000    -0.560545   
N23      N      0.284733333333     0.694566666667     0.517200000000    -0.560545   
N23      N      0.618066666667     0.027900000000     0.017200000000    -0.560545   
N23      N      0.618066666667     0.027900000000     0.517200000000    -0.560545   
N23      N      0.618066666667     0.361233333333     0.017200000000    -0.560545   
N23      N      0.618066666667     0.361233333333     0.517200000000    -0.560545   
N23      N      0.618066666667     0.694566666667     0.017200000000    -0.560545   
N23      N      0.618066666667     0.694566666667     0.517200000000    -0.560545   
N23      N      0.951400000000     0.027900000000     0.017200000000    -0.560545   
N23      N      0.951400000000     0.027900000000     0.517200000000    -0.560545   
N23      N      0.951400000000     0.361233333333     0.017200000000    -0.560545   
N23      N      0.951400000000     0.361233333333     0.517200000000    -0.560545   
N23      N      0.951400000000     0.694566666667     0.017200000000    -0.560545   
N23      N      0.951400000000     0.694566666667     0.517200000000    -0.560545   
N24      N      0.166200000000     0.307500000000     0.314900000000    -0.556583   
N24      N      0.166200000000     0.307500000000     0.814900000000    -0.556583   
N24      N      0.166200000000     0.640833333333     0.314900000000    -0.556583   
N24      N      0.166200000000     0.640833333333     0.814900000000    -0.556583   
N24      N      0.166200000000     0.974166666667     0.314900000000    -0.556583   
N24      N      0.166200000000     0.974166666667     0.814900000000    -0.556583   
N24      N      0.499533333333     0.307500000000     0.314900000000    -0.556583   
N24      N      0.499533333333     0.307500000000     0.814900000000    -0.556583   
N24      N      0.499533333333     0.640833333333     0.314900000000    -0.556583   
N24      N      0.499533333333     0.640833333333     0.814900000000    -0.556583   
N24      N      0.499533333333     0.974166666667     0.314900000000    -0.556583   
N24      N      0.499533333333     0.974166666667     0.814900000000    -0.556583   
N24      N      0.832866666667     0.307500000000     0.314900000000    -0.556583   
N24      N      0.832866666667     0.307500000000     0.814900000000    -0.556583   
N24      N      0.832866666667     0.640833333333     0.314900000000    -0.556583   
N24      N      0.832866666667     0.640833333333     0.814900000000    -0.556583   
N24      N      0.832866666667     0.974166666667     0.314900000000    -0.556583   
N24      N      0.832866666667     0.974166666667     0.814900000000    -0.556583   
O1       O      0.141600000000     0.083033333333     0.309650000000    -0.495201   
O1       O      0.141600000000     0.083033333333     0.809650000000    -0.495201   
O1       O      0.141600000000     0.416366666667     0.309650000000    -0.495201   
O1       O      0.141600000000     0.416366666667     0.809650000000    -0.495201   
O1       O      0.141600000000     0.749700000000     0.309650000000    -0.495201   
O1       O      0.141600000000     0.749700000000     0.809650000000    -0.495201   
O1       O      0.474933333333     0.083033333333     0.309650000000    -0.495201   
O1       O      0.474933333333     0.083033333333     0.809650000000    -0.495201   
O1       O      0.474933333333     0.416366666667     0.309650000000    -0.495201   
O1       O      0.474933333333     0.416366666667     0.809650000000    -0.495201   
O1       O      0.474933333333     0.749700000000     0.309650000000    -0.495201   
O1       O      0.474933333333     0.749700000000     0.809650000000    -0.495201   
O1       O      0.808266666667     0.083033333333     0.309650000000    -0.495201   
O1       O      0.808266666667     0.083033333333     0.809650000000    -0.495201   
O1       O      0.808266666667     0.416366666667     0.309650000000    -0.495201   
O1       O      0.808266666667     0.416366666667     0.809650000000    -0.495201   
O1       O      0.808266666667     0.749700000000     0.309650000000    -0.495201   
O1       O      0.808266666667     0.749700000000     0.809650000000    -0.495201   
O2       O      0.063600000000     0.128833333333     0.355400000000    -0.461655   
O2       O      0.063600000000     0.128833333333     0.855400000000    -0.461655   
O2       O      0.063600000000     0.462166666667     0.355400000000    -0.461655   
O2       O      0.063600000000     0.462166666667     0.855400000000    -0.461655   
O2       O      0.063600000000     0.795500000000     0.355400000000    -0.461655   
O2       O      0.063600000000     0.795500000000     0.855400000000    -0.461655   
O2       O      0.396933333333     0.128833333333     0.355400000000    -0.461655   
O2       O      0.396933333333     0.128833333333     0.855400000000    -0.461655   
O2       O      0.396933333333     0.462166666667     0.355400000000    -0.461655   
O2       O      0.396933333333     0.462166666667     0.855400000000    -0.461655   
O2       O      0.396933333333     0.795500000000     0.355400000000    -0.461655   
O2       O      0.396933333333     0.795500000000     0.855400000000    -0.461655   
O2       O      0.730266666667     0.128833333333     0.355400000000    -0.461655   
O2       O      0.730266666667     0.128833333333     0.855400000000    -0.461655   
O2       O      0.730266666667     0.462166666667     0.355400000000    -0.461655   
O2       O      0.730266666667     0.462166666667     0.855400000000    -0.461655   
O2       O      0.730266666667     0.795500000000     0.355400000000    -0.461655   
O2       O      0.730266666667     0.795500000000     0.855400000000    -0.461655   
O3       O      0.089766666667     0.085766666667     0.407450000000    -0.564302   
O3       O      0.089766666667     0.085766666667     0.907450000000    -0.564302   
O3       O      0.089766666667     0.419100000000     0.407450000000    -0.564302   
O3       O      0.089766666667     0.419100000000     0.907450000000    -0.564302   
O3       O      0.089766666667     0.752433333333     0.407450000000    -0.564302   
O3       O      0.089766666667     0.752433333333     0.907450000000    -0.564302   
O3       O      0.423100000000     0.085766666667     0.407450000000    -0.564302   
O3       O      0.423100000000     0.085766666667     0.907450000000    -0.564302   
O3       O      0.423100000000     0.419100000000     0.407450000000    -0.564302   
O3       O      0.423100000000     0.419100000000     0.907450000000    -0.564302   
O3       O      0.423100000000     0.752433333333     0.407450000000    -0.564302   
O3       O      0.423100000000     0.752433333333     0.907450000000    -0.564302   
O3       O      0.756433333333     0.085766666667     0.407450000000    -0.564302   
O3       O      0.756433333333     0.085766666667     0.907450000000    -0.564302   
O3       O      0.756433333333     0.419100000000     0.407450000000    -0.564302   
O3       O      0.756433333333     0.419100000000     0.907450000000    -0.564302   
O3       O      0.756433333333     0.752433333333     0.407450000000    -0.564302   
O3       O      0.756433333333     0.752433333333     0.907450000000    -0.564302   
O4       O      0.133000000000     0.016033333333     0.385600000000    -0.544546   
O4       O      0.133000000000     0.016033333333     0.885600000000    -0.544546   
O4       O      0.133000000000     0.349366666667     0.385600000000    -0.544546   
O4       O      0.133000000000     0.349366666667     0.885600000000    -0.544546   
O4       O      0.133000000000     0.682700000000     0.385600000000    -0.544546   
O4       O      0.133000000000     0.682700000000     0.885600000000    -0.544546   
O4       O      0.466333333333     0.016033333333     0.385600000000    -0.544546   
O4       O      0.466333333333     0.016033333333     0.885600000000    -0.544546   
O4       O      0.466333333333     0.349366666667     0.385600000000    -0.544546   
O4       O      0.466333333333     0.349366666667     0.885600000000    -0.544546   
O4       O      0.466333333333     0.682700000000     0.385600000000    -0.544546   
O4       O      0.466333333333     0.682700000000     0.885600000000    -0.544546   
O4       O      0.799666666667     0.016033333333     0.385600000000    -0.544546   
O4       O      0.799666666667     0.016033333333     0.885600000000    -0.544546   
O4       O      0.799666666667     0.349366666667     0.385600000000    -0.544546   
O4       O      0.799666666667     0.349366666667     0.885600000000    -0.544546   
O4       O      0.799666666667     0.682700000000     0.385600000000    -0.544546   
O4       O      0.799666666667     0.682700000000     0.885600000000    -0.544546   
O5       O      0.093733333333     0.013233333333     0.439000000000    -0.844284   
O5       O      0.093733333333     0.013233333333     0.939000000000    -0.844284   
O5       O      0.093733333333     0.346566666667     0.439000000000    -0.844284   
O5       O      0.093733333333     0.346566666667     0.939000000000    -0.844284   
O5       O      0.093733333333     0.679900000000     0.439000000000    -0.844284   
O5       O      0.093733333333     0.679900000000     0.939000000000    -0.844284   
O5       O      0.427066666667     0.013233333333     0.439000000000    -0.844284   
O5       O      0.427066666667     0.013233333333     0.939000000000    -0.844284   
O5       O      0.427066666667     0.346566666667     0.439000000000    -0.844284   
O5       O      0.427066666667     0.346566666667     0.939000000000    -0.844284   
O5       O      0.427066666667     0.679900000000     0.439000000000    -0.844284   
O5       O      0.427066666667     0.679900000000     0.939000000000    -0.844284   
O5       O      0.760400000000     0.013233333333     0.439000000000    -0.844284   
O5       O      0.760400000000     0.013233333333     0.939000000000    -0.844284   
O5       O      0.760400000000     0.346566666667     0.439000000000    -0.844284   
O5       O      0.760400000000     0.346566666667     0.939000000000    -0.844284   
O5       O      0.760400000000     0.679900000000     0.439000000000    -0.844284   
O5       O      0.760400000000     0.679900000000     0.939000000000    -0.844284   
O6       O      0.310033333333     0.250033333333     0.017650000000    -0.438821   
O6       O      0.310033333333     0.250033333333     0.517650000000    -0.438821   
O6       O      0.310033333333     0.583366666667     0.017650000000    -0.438821   
O6       O      0.310033333333     0.583366666667     0.517650000000    -0.438821   
O6       O      0.310033333333     0.916700000000     0.017650000000    -0.438821   
O6       O      0.310033333333     0.916700000000     0.517650000000    -0.438821   
O6       O      0.643366666667     0.250033333333     0.017650000000    -0.438821   
O6       O      0.643366666667     0.250033333333     0.517650000000    -0.438821   
O6       O      0.643366666667     0.583366666667     0.017650000000    -0.438821   
O6       O      0.643366666667     0.583366666667     0.517650000000    -0.438821   
O6       O      0.643366666667     0.916700000000     0.017650000000    -0.438821   
O6       O      0.643366666667     0.916700000000     0.517650000000    -0.438821   
O6       O      0.976700000000     0.250033333333     0.017650000000    -0.438821   
O6       O      0.976700000000     0.250033333333     0.517650000000    -0.438821   
O6       O      0.976700000000     0.583366666667     0.017650000000    -0.438821   
O6       O      0.976700000000     0.583366666667     0.517650000000    -0.438821   
O6       O      0.976700000000     0.916700000000     0.017650000000    -0.438821   
O6       O      0.976700000000     0.916700000000     0.517650000000    -0.438821   
O7       O      0.322900000000     0.197833333333     0.053550000000    -0.509413   
O7       O      0.322900000000     0.197833333333     0.553550000000    -0.509413   
O7       O      0.322900000000     0.531166666667     0.053550000000    -0.509413   
O7       O      0.322900000000     0.531166666667     0.553550000000    -0.509413   
O7       O      0.322900000000     0.864500000000     0.053550000000    -0.509413   
O7       O      0.322900000000     0.864500000000     0.553550000000    -0.509413   
O7       O      0.656233333333     0.197833333333     0.053550000000    -0.509413   
O7       O      0.656233333333     0.197833333333     0.553550000000    -0.509413   
O7       O      0.656233333333     0.531166666667     0.053550000000    -0.509413   
O7       O      0.656233333333     0.531166666667     0.553550000000    -0.509413   
O7       O      0.656233333333     0.864500000000     0.053550000000    -0.509413   
O7       O      0.656233333333     0.864500000000     0.553550000000    -0.509413   
O7       O      0.989566666667     0.197833333333     0.053550000000    -0.509413   
O7       O      0.989566666667     0.197833333333     0.553550000000    -0.509413   
O7       O      0.989566666667     0.531166666667     0.053550000000    -0.509413   
O7       O      0.989566666667     0.531166666667     0.553550000000    -0.509413   
O7       O      0.989566666667     0.864500000000     0.053550000000    -0.509413   
O7       O      0.989566666667     0.864500000000     0.553550000000    -0.509413   
O8       O      0.070166666667     0.149833333333     0.063550000000    -0.465884   
O8       O      0.070166666667     0.149833333333     0.563550000000    -0.465884   
O8       O      0.070166666667     0.483166666667     0.063550000000    -0.465884   
O8       O      0.070166666667     0.483166666667     0.563550000000    -0.465884   
O8       O      0.070166666667     0.816500000000     0.063550000000    -0.465884   
O8       O      0.070166666667     0.816500000000     0.563550000000    -0.465884   
O8       O      0.403500000000     0.149833333333     0.063550000000    -0.465884   
O8       O      0.403500000000     0.149833333333     0.563550000000    -0.465884   
O8       O      0.403500000000     0.483166666667     0.063550000000    -0.465884   
O8       O      0.403500000000     0.483166666667     0.563550000000    -0.465884   
O8       O      0.403500000000     0.816500000000     0.063550000000    -0.465884   
O8       O      0.403500000000     0.816500000000     0.563550000000    -0.465884   
O8       O      0.736833333333     0.149833333333     0.063550000000    -0.465884   
O8       O      0.736833333333     0.149833333333     0.563550000000    -0.465884   
O8       O      0.736833333333     0.483166666667     0.063550000000    -0.465884   
O8       O      0.736833333333     0.483166666667     0.563550000000    -0.465884   
O8       O      0.736833333333     0.816500000000     0.063550000000    -0.465884   
O8       O      0.736833333333     0.816500000000     0.563550000000    -0.465884   
O9       O      0.038233333333     0.147533333333     0.124200000000    -0.583835   
O9       O      0.038233333333     0.147533333333     0.624200000000    -0.583835   
O9       O      0.038233333333     0.480866666667     0.124200000000    -0.583835   
O9       O      0.038233333333     0.480866666667     0.624200000000    -0.583835   
O9       O      0.038233333333     0.814200000000     0.124200000000    -0.583835   
O9       O      0.038233333333     0.814200000000     0.624200000000    -0.583835   
O9       O      0.371566666667     0.147533333333     0.124200000000    -0.583835   
O9       O      0.371566666667     0.147533333333     0.624200000000    -0.583835   
O9       O      0.371566666667     0.480866666667     0.124200000000    -0.583835   
O9       O      0.371566666667     0.480866666667     0.624200000000    -0.583835   
O9       O      0.371566666667     0.814200000000     0.124200000000    -0.583835   
O9       O      0.371566666667     0.814200000000     0.624200000000    -0.583835   
O9       O      0.704900000000     0.147533333333     0.124200000000    -0.583835   
O9       O      0.704900000000     0.147533333333     0.624200000000    -0.583835   
O9       O      0.704900000000     0.480866666667     0.124200000000    -0.583835   
O9       O      0.704900000000     0.480866666667     0.624200000000    -0.583835   
O9       O      0.704900000000     0.814200000000     0.124200000000    -0.583835   
O9       O      0.704900000000     0.814200000000     0.624200000000    -0.583835   
O10      O      0.017700000000     0.245600000000     0.435000000000    -0.438823   
O10      O      0.017700000000     0.245600000000     0.935000000000    -0.438823   
O10      O      0.017700000000     0.578933333333     0.435000000000    -0.438823   
O10      O      0.017700000000     0.578933333333     0.935000000000    -0.438823   
O10      O      0.017700000000     0.912266666667     0.435000000000    -0.438823   
O10      O      0.017700000000     0.912266666667     0.935000000000    -0.438823   
O10      O      0.351033333333     0.245600000000     0.435000000000    -0.438823   
O10      O      0.351033333333     0.245600000000     0.935000000000    -0.438823   
O10      O      0.351033333333     0.578933333333     0.435000000000    -0.438823   
O10      O      0.351033333333     0.578933333333     0.935000000000    -0.438823   
O10      O      0.351033333333     0.912266666667     0.435000000000    -0.438823   
O10      O      0.351033333333     0.912266666667     0.935000000000    -0.438823   
O10      O      0.684366666667     0.245600000000     0.435000000000    -0.438823   
O10      O      0.684366666667     0.245600000000     0.935000000000    -0.438823   
O10      O      0.684366666667     0.578933333333     0.435000000000    -0.438823   
O10      O      0.684366666667     0.578933333333     0.935000000000    -0.438823   
O10      O      0.684366666667     0.912266666667     0.435000000000    -0.438823   
O10      O      0.684366666667     0.912266666667     0.935000000000    -0.438823   
O11      O      0.009866666667     0.323666666667     0.405800000000    -0.698834   
O11      O      0.009866666667     0.323666666667     0.905800000000    -0.698834   
O11      O      0.009866666667     0.657000000000     0.405800000000    -0.698834   
O11      O      0.009866666667     0.657000000000     0.905800000000    -0.698834   
O11      O      0.009866666667     0.990333333333     0.405800000000    -0.698834   
O11      O      0.009866666667     0.990333333333     0.905800000000    -0.698834   
O11      O      0.343200000000     0.323666666667     0.405800000000    -0.698834   
O11      O      0.343200000000     0.323666666667     0.905800000000    -0.698834   
O11      O      0.343200000000     0.657000000000     0.405800000000    -0.698834   
O11      O      0.343200000000     0.657000000000     0.905800000000    -0.698834   
O11      O      0.343200000000     0.990333333333     0.405800000000    -0.698834   
O11      O      0.343200000000     0.990333333333     0.905800000000    -0.698834   
O11      O      0.676533333333     0.323666666667     0.405800000000    -0.698834   
O11      O      0.676533333333     0.323666666667     0.905800000000    -0.698834   
O11      O      0.676533333333     0.657000000000     0.405800000000    -0.698834   
O11      O      0.676533333333     0.657000000000     0.905800000000    -0.698834   
O11      O      0.676533333333     0.990333333333     0.405800000000    -0.698834   
O11      O      0.676533333333     0.990333333333     0.905800000000    -0.698834   
O12      O      0.308266666667     0.307800000000     0.456000000000    -0.493594   
O12      O      0.308266666667     0.307800000000     0.956000000000    -0.493594   
O12      O      0.308266666667     0.641133333333     0.456000000000    -0.493594   
O12      O      0.308266666667     0.641133333333     0.956000000000    -0.493594   
O12      O      0.308266666667     0.974466666667     0.456000000000    -0.493594   
O12      O      0.308266666667     0.974466666667     0.956000000000    -0.493594   
O12      O      0.641600000000     0.307800000000     0.456000000000    -0.493594   
O12      O      0.641600000000     0.307800000000     0.956000000000    -0.493594   
O12      O      0.641600000000     0.641133333333     0.456000000000    -0.493594   
O12      O      0.641600000000     0.641133333333     0.956000000000    -0.493594   
O12      O      0.641600000000     0.974466666667     0.456000000000    -0.493594   
O12      O      0.641600000000     0.974466666667     0.956000000000    -0.493594   
O12      O      0.974933333333     0.307800000000     0.456000000000    -0.493594   
O12      O      0.974933333333     0.307800000000     0.956000000000    -0.493594   
O12      O      0.974933333333     0.641133333333     0.456000000000    -0.493594   
O12      O      0.974933333333     0.641133333333     0.956000000000    -0.493594   
O12      O      0.974933333333     0.974466666667     0.456000000000    -0.493594   
O12      O      0.974933333333     0.974466666667     0.956000000000    -0.493594   
O13      O      0.116866666667     0.138533333333     0.288900000000    -0.5292     
O13      O      0.116866666667     0.138533333333     0.788900000000    -0.5292     
O13      O      0.116866666667     0.471866666667     0.288900000000    -0.5292     
O13      O      0.116866666667     0.471866666667     0.788900000000    -0.5292     
O13      O      0.116866666667     0.805200000000     0.288900000000    -0.5292     
O13      O      0.116866666667     0.805200000000     0.788900000000    -0.5292     
O13      O      0.450200000000     0.138533333333     0.288900000000    -0.5292     
O13      O      0.450200000000     0.138533333333     0.788900000000    -0.5292     
O13      O      0.450200000000     0.471866666667     0.288900000000    -0.5292     
O13      O      0.450200000000     0.471866666667     0.788900000000    -0.5292     
O13      O      0.450200000000     0.805200000000     0.288900000000    -0.5292     
O13      O      0.450200000000     0.805200000000     0.788900000000    -0.5292     
O13      O      0.783533333333     0.138533333333     0.288900000000    -0.5292     
O13      O      0.783533333333     0.138533333333     0.788900000000    -0.5292     
O13      O      0.783533333333     0.471866666667     0.288900000000    -0.5292     
O13      O      0.783533333333     0.471866666667     0.788900000000    -0.5292     
O13      O      0.783533333333     0.805200000000     0.288900000000    -0.5292     
O13      O      0.783533333333     0.805200000000     0.788900000000    -0.5292     
O14      O      0.074000000000     0.252933333333     0.366000000000    -0.694031   
O14      O      0.074000000000     0.252933333333     0.866000000000    -0.694031   
O14      O      0.074000000000     0.586266666667     0.366000000000    -0.694031   
O14      O      0.074000000000     0.586266666667     0.866000000000    -0.694031   
O14      O      0.074000000000     0.919600000000     0.366000000000    -0.694031   
O14      O      0.074000000000     0.919600000000     0.866000000000    -0.694031   
O14      O      0.407333333333     0.252933333333     0.366000000000    -0.694031   
O14      O      0.407333333333     0.252933333333     0.866000000000    -0.694031   
O14      O      0.407333333333     0.586266666667     0.366000000000    -0.694031   
O14      O      0.407333333333     0.586266666667     0.866000000000    -0.694031   
O14      O      0.407333333333     0.919600000000     0.366000000000    -0.694031   
O14      O      0.407333333333     0.919600000000     0.866000000000    -0.694031   
O14      O      0.740666666667     0.252933333333     0.366000000000    -0.694031   
O14      O      0.740666666667     0.252933333333     0.866000000000    -0.694031   
O14      O      0.740666666667     0.586266666667     0.366000000000    -0.694031   
O14      O      0.740666666667     0.586266666667     0.866000000000    -0.694031   
O14      O      0.740666666667     0.919600000000     0.366000000000    -0.694031   
O14      O      0.740666666667     0.919600000000     0.866000000000    -0.694031   
O15      O      0.106066666667     0.197200000000     0.373350000000    -0.560545   
O15      O      0.106066666667     0.197200000000     0.873350000000    -0.560545   
O15      O      0.106066666667     0.530533333333     0.373350000000    -0.560545   
O15      O      0.106066666667     0.530533333333     0.873350000000    -0.560545   
O15      O      0.106066666667     0.863866666667     0.373350000000    -0.560545   
O15      O      0.106066666667     0.863866666667     0.873350000000    -0.560545   
O15      O      0.439400000000     0.197200000000     0.373350000000    -0.560545   
O15      O      0.439400000000     0.197200000000     0.873350000000    -0.560545   
O15      O      0.439400000000     0.530533333333     0.373350000000    -0.560545   
O15      O      0.439400000000     0.530533333333     0.873350000000    -0.560545   
O15      O      0.439400000000     0.863866666667     0.373350000000    -0.560545   
O15      O      0.439400000000     0.863866666667     0.873350000000    -0.560545   
O15      O      0.772733333333     0.197200000000     0.373350000000    -0.560545   
O15      O      0.772733333333     0.197200000000     0.873350000000    -0.560545   
O15      O      0.772733333333     0.530533333333     0.373350000000    -0.560545   
O15      O      0.772733333333     0.530533333333     0.873350000000    -0.560545   
O15      O      0.772733333333     0.863866666667     0.373350000000    -0.560545   
O15      O      0.772733333333     0.863866666667     0.873350000000    -0.560545   
O16      O      0.182966666667     0.148033333333     0.396450000000    -0.556587   
O16      O      0.182966666667     0.148033333333     0.896450000000    -0.556587   
O16      O      0.182966666667     0.481366666667     0.396450000000    -0.556587   
O16      O      0.182966666667     0.481366666667     0.896450000000    -0.556587   
O16      O      0.182966666667     0.814700000000     0.396450000000    -0.556587   
O16      O      0.182966666667     0.814700000000     0.896450000000    -0.556587   
O16      O      0.516300000000     0.148033333333     0.396450000000    -0.556587   
O16      O      0.516300000000     0.148033333333     0.896450000000    -0.556587   
O16      O      0.516300000000     0.481366666667     0.396450000000    -0.556587   
O16      O      0.516300000000     0.481366666667     0.896450000000    -0.556587   
O16      O      0.516300000000     0.814700000000     0.396450000000    -0.556587   
O16      O      0.516300000000     0.814700000000     0.896450000000    -0.556587   
O16      O      0.849633333333     0.148033333333     0.396450000000    -0.556587   
O16      O      0.849633333333     0.148033333333     0.896450000000    -0.556587   
O16      O      0.849633333333     0.481366666667     0.396450000000    -0.556587   
O16      O      0.849633333333     0.481366666667     0.896450000000    -0.556587   
O16      O      0.849633333333     0.814700000000     0.396450000000    -0.556587   
O16      O      0.849633333333     0.814700000000     0.896450000000    -0.556587   
O17      O      0.147966666667     0.148666666667     0.454900000000    -0.495211   
O17      O      0.147966666667     0.148666666667     0.954900000000    -0.495211   
O17      O      0.147966666667     0.482000000000     0.454900000000    -0.495211   
O17      O      0.147966666667     0.482000000000     0.954900000000    -0.495211   
O17      O      0.147966666667     0.815333333333     0.454900000000    -0.495211   
O17      O      0.147966666667     0.815333333333     0.954900000000    -0.495211   
O17      O      0.481300000000     0.148666666667     0.454900000000    -0.495211   
O17      O      0.481300000000     0.148666666667     0.954900000000    -0.495211   
O17      O      0.481300000000     0.482000000000     0.454900000000    -0.495211   
O17      O      0.481300000000     0.482000000000     0.954900000000    -0.495211   
O17      O      0.481300000000     0.815333333333     0.454900000000    -0.495211   
O17      O      0.481300000000     0.815333333333     0.954900000000    -0.495211   
O17      O      0.814633333333     0.148666666667     0.454900000000    -0.495211   
O17      O      0.814633333333     0.148666666667     0.954900000000    -0.495211   
O17      O      0.814633333333     0.482000000000     0.454900000000    -0.495211   
O17      O      0.814633333333     0.482000000000     0.954900000000    -0.495211   
O17      O      0.814633333333     0.815333333333     0.454900000000    -0.495211   
O17      O      0.814633333333     0.815333333333     0.954900000000    -0.495211   
O18      O      0.156166666667     0.130966666667     0.198650000000    -0.461667   
O18      O      0.156166666667     0.130966666667     0.698650000000    -0.461667   
O18      O      0.156166666667     0.464300000000     0.198650000000    -0.461667   
O18      O      0.156166666667     0.464300000000     0.698650000000    -0.461667   
O18      O      0.156166666667     0.797633333333     0.198650000000    -0.461667   
O18      O      0.156166666667     0.797633333333     0.698650000000    -0.461667   
O18      O      0.489500000000     0.130966666667     0.198650000000    -0.461667   
O18      O      0.489500000000     0.130966666667     0.698650000000    -0.461667   
O18      O      0.489500000000     0.464300000000     0.198650000000    -0.461667   
O18      O      0.489500000000     0.464300000000     0.698650000000    -0.461667   
O18      O      0.489500000000     0.797633333333     0.198650000000    -0.461667   
O18      O      0.489500000000     0.797633333333     0.698650000000    -0.461667   
O18      O      0.822833333333     0.130966666667     0.198650000000    -0.461667   
O18      O      0.822833333333     0.130966666667     0.698650000000    -0.461667   
O18      O      0.822833333333     0.464300000000     0.198650000000    -0.461667   
O18      O      0.822833333333     0.464300000000     0.698650000000    -0.461667   
O18      O      0.822833333333     0.797633333333     0.198650000000    -0.461667   
O18      O      0.822833333333     0.797633333333     0.698650000000    -0.461667   
O19      O      0.206333333333     0.084966666667     0.218750000000    -0.5643     
O19      O      0.206333333333     0.084966666667     0.718750000000    -0.5643     
O19      O      0.206333333333     0.418300000000     0.218750000000    -0.5643     
O19      O      0.206333333333     0.418300000000     0.718750000000    -0.5643     
O19      O      0.206333333333     0.751633333333     0.218750000000    -0.5643     
O19      O      0.206333333333     0.751633333333     0.718750000000    -0.5643     
O19      O      0.539666666667     0.084966666667     0.218750000000    -0.5643     
O19      O      0.539666666667     0.084966666667     0.718750000000    -0.5643     
O19      O      0.539666666667     0.418300000000     0.218750000000    -0.5643     
O19      O      0.539666666667     0.418300000000     0.718750000000    -0.5643     
O19      O      0.539666666667     0.751633333333     0.218750000000    -0.5643     
O19      O      0.539666666667     0.751633333333     0.718750000000    -0.5643     
O19      O      0.873000000000     0.084966666667     0.218750000000    -0.5643     
O19      O      0.873000000000     0.084966666667     0.718750000000    -0.5643     
O19      O      0.873000000000     0.418300000000     0.218750000000    -0.5643     
O19      O      0.873000000000     0.418300000000     0.718750000000    -0.5643     
O19      O      0.873000000000     0.751633333333     0.218750000000    -0.5643     
O19      O      0.873000000000     0.751633333333     0.718750000000    -0.5643     
O20      O      0.241733333333     0.011533333333     0.208350000000    -0.753847   
O20      O      0.241733333333     0.011533333333     0.708350000000    -0.753847   
O20      O      0.241733333333     0.344866666667     0.208350000000    -0.753847   
O20      O      0.241733333333     0.344866666667     0.708350000000    -0.753847   
O20      O      0.241733333333     0.678200000000     0.208350000000    -0.753847   
O20      O      0.241733333333     0.678200000000     0.708350000000    -0.753847   
O20      O      0.575066666667     0.011533333333     0.208350000000    -0.753847   
O20      O      0.575066666667     0.011533333333     0.708350000000    -0.753847   
O20      O      0.575066666667     0.344866666667     0.208350000000    -0.753847   
O20      O      0.575066666667     0.344866666667     0.708350000000    -0.753847   
O20      O      0.575066666667     0.678200000000     0.208350000000    -0.753847   
O20      O      0.575066666667     0.678200000000     0.708350000000    -0.753847   
O20      O      0.908400000000     0.011533333333     0.208350000000    -0.753847   
O20      O      0.908400000000     0.011533333333     0.708350000000    -0.753847   
O20      O      0.908400000000     0.344866666667     0.208350000000    -0.753847   
O20      O      0.908400000000     0.344866666667     0.708350000000    -0.753847   
O20      O      0.908400000000     0.678200000000     0.208350000000    -0.753847   
O20      O      0.908400000000     0.678200000000     0.708350000000    -0.753847   
O21      O      0.205800000000     0.018166666667     0.265700000000    -0.544535   
O21      O      0.205800000000     0.018166666667     0.765700000000    -0.544535   
O21      O      0.205800000000     0.351500000000     0.265700000000    -0.544535   
O21      O      0.205800000000     0.351500000000     0.765700000000    -0.544535   
O21      O      0.205800000000     0.684833333333     0.265700000000    -0.544535   
O21      O      0.205800000000     0.684833333333     0.765700000000    -0.544535   
O21      O      0.539133333333     0.018166666667     0.265700000000    -0.544535   
O21      O      0.539133333333     0.018166666667     0.765700000000    -0.544535   
O21      O      0.539133333333     0.351500000000     0.265700000000    -0.544535   
O21      O      0.539133333333     0.351500000000     0.765700000000    -0.544535   
O21      O      0.539133333333     0.684833333333     0.265700000000    -0.544535   
O21      O      0.539133333333     0.684833333333     0.765700000000    -0.544535   
O21      O      0.872466666667     0.018166666667     0.265700000000    -0.544535   
O21      O      0.872466666667     0.018166666667     0.765700000000    -0.544535   
O21      O      0.872466666667     0.351500000000     0.265700000000    -0.544535   
O21      O      0.872466666667     0.351500000000     0.765700000000    -0.544535   
O21      O      0.872466666667     0.684833333333     0.265700000000    -0.544535   
O21      O      0.872466666667     0.684833333333     0.765700000000    -0.544535   
O22      O      0.102133333333     0.205100000000     0.282200000000    -0.753847   
O22      O      0.102133333333     0.205100000000     0.782200000000    -0.753847   
O22      O      0.102133333333     0.538433333333     0.282200000000    -0.753847   
O22      O      0.102133333333     0.538433333333     0.782200000000    -0.753847   
O22      O      0.102133333333     0.871766666667     0.282200000000    -0.753847   
O22      O      0.102133333333     0.871766666667     0.782200000000    -0.753847   
O22      O      0.435466666667     0.205100000000     0.282200000000    -0.753847   
O22      O      0.435466666667     0.205100000000     0.782200000000    -0.753847   
O22      O      0.435466666667     0.538433333333     0.282200000000    -0.753847   
O22      O      0.435466666667     0.538433333333     0.782200000000    -0.753847   
O22      O      0.435466666667     0.871766666667     0.282200000000    -0.753847   
O22      O      0.435466666667     0.871766666667     0.782200000000    -0.753847   
O22      O      0.768800000000     0.205100000000     0.282200000000    -0.753847   
O22      O      0.768800000000     0.205100000000     0.782200000000    -0.753847   
O22      O      0.768800000000     0.538433333333     0.282200000000    -0.753847   
O22      O      0.768800000000     0.538433333333     0.782200000000    -0.753847   
O22      O      0.768800000000     0.871766666667     0.282200000000    -0.753847   
O22      O      0.768800000000     0.871766666667     0.782200000000    -0.753847   
O23      O      0.062533333333     0.199566666667     0.466000000000    -0.684379   
O23      O      0.062533333333     0.199566666667     0.966000000000    -0.684379   
O23      O      0.062533333333     0.532900000000     0.466000000000    -0.684379   
O23      O      0.062533333333     0.532900000000     0.966000000000    -0.684379   
O23      O      0.062533333333     0.866233333333     0.466000000000    -0.684379   
O23      O      0.062533333333     0.866233333333     0.966000000000    -0.684379   
O23      O      0.395866666667     0.199566666667     0.466000000000    -0.684379   
O23      O      0.395866666667     0.199566666667     0.966000000000    -0.684379   
O23      O      0.395866666667     0.532900000000     0.466000000000    -0.684379   
O23      O      0.395866666667     0.532900000000     0.966000000000    -0.684379   
O23      O      0.395866666667     0.866233333333     0.466000000000    -0.684379   
O23      O      0.395866666667     0.866233333333     0.966000000000    -0.684379   
O23      O      0.729200000000     0.199566666667     0.466000000000    -0.684379   
O23      O      0.729200000000     0.199566666667     0.966000000000    -0.684379   
O23      O      0.729200000000     0.532900000000     0.466000000000    -0.684379   
O23      O      0.729200000000     0.532900000000     0.966000000000    -0.684379   
O23      O      0.729200000000     0.866233333333     0.466000000000    -0.684379   
O23      O      0.729200000000     0.866233333333     0.966000000000    -0.684379   
O24      O      0.060366666667     0.190666666667     0.215550000000    -0.509412   
O24      O      0.060366666667     0.190666666667     0.715550000000    -0.509412   
O24      O      0.060366666667     0.524000000000     0.215550000000    -0.509412   
O24      O      0.060366666667     0.524000000000     0.715550000000    -0.509412   
O24      O      0.060366666667     0.857333333333     0.215550000000    -0.509412   
O24      O      0.060366666667     0.857333333333     0.715550000000    -0.509412   
O24      O      0.393700000000     0.190666666667     0.215550000000    -0.509412   
O24      O      0.393700000000     0.190666666667     0.715550000000    -0.509412   
O24      O      0.393700000000     0.524000000000     0.215550000000    -0.509412   
O24      O      0.393700000000     0.524000000000     0.715550000000    -0.509412   
O24      O      0.393700000000     0.857333333333     0.215550000000    -0.509412   
O24      O      0.393700000000     0.857333333333     0.715550000000    -0.509412   
O24      O      0.727033333333     0.190666666667     0.215550000000    -0.509412   
O24      O      0.727033333333     0.190666666667     0.715550000000    -0.509412   
O24      O      0.727033333333     0.524000000000     0.215550000000    -0.509412   
O24      O      0.727033333333     0.524000000000     0.715550000000    -0.509412   
O24      O      0.727033333333     0.857333333333     0.215550000000    -0.509412   
O24      O      0.727033333333     0.857333333333     0.715550000000    -0.509412   
O25      O      0.010433333333     0.135500000000     0.446450000000    -0.675573   
O25      O      0.010433333333     0.135500000000     0.946450000000    -0.675573   
O25      O      0.010433333333     0.468833333333     0.446450000000    -0.675573   
O25      O      0.010433333333     0.468833333333     0.946450000000    -0.675573   
O25      O      0.010433333333     0.802166666667     0.446450000000    -0.675573   
O25      O      0.010433333333     0.802166666667     0.946450000000    -0.675573   
O25      O      0.343766666667     0.135500000000     0.446450000000    -0.675573   
O25      O      0.343766666667     0.135500000000     0.946450000000    -0.675573   
O25      O      0.343766666667     0.468833333333     0.446450000000    -0.675573   
O25      O      0.343766666667     0.468833333333     0.946450000000    -0.675573   
O25      O      0.343766666667     0.802166666667     0.446450000000    -0.675573   
O25      O      0.343766666667     0.802166666667     0.946450000000    -0.675573   
O25      O      0.677100000000     0.135500000000     0.446450000000    -0.675573   
O25      O      0.677100000000     0.135500000000     0.946450000000    -0.675573   
O25      O      0.677100000000     0.468833333333     0.446450000000    -0.675573   
O25      O      0.677100000000     0.468833333333     0.946450000000    -0.675573   
O25      O      0.677100000000     0.802166666667     0.446450000000    -0.675573   
O25      O      0.677100000000     0.802166666667     0.946450000000    -0.675573   
O26      O      0.263166666667     0.183500000000     0.436450000000    -0.447004   
O26      O      0.263166666667     0.183500000000     0.936450000000    -0.447004   
O26      O      0.263166666667     0.516833333333     0.436450000000    -0.447004   
O26      O      0.263166666667     0.516833333333     0.936450000000    -0.447004   
O26      O      0.263166666667     0.850166666667     0.436450000000    -0.447004   
O26      O      0.263166666667     0.850166666667     0.936450000000    -0.447004   
O26      O      0.596500000000     0.183500000000     0.436450000000    -0.447004   
O26      O      0.596500000000     0.183500000000     0.936450000000    -0.447004   
O26      O      0.596500000000     0.516833333333     0.436450000000    -0.447004   
O26      O      0.596500000000     0.516833333333     0.936450000000    -0.447004   
O26      O      0.596500000000     0.850166666667     0.436450000000    -0.447004   
O26      O      0.596500000000     0.850166666667     0.936450000000    -0.447004   
O26      O      0.929833333333     0.183500000000     0.436450000000    -0.447004   
O26      O      0.929833333333     0.183500000000     0.936450000000    -0.447004   
O26      O      0.929833333333     0.516833333333     0.436450000000    -0.447004   
O26      O      0.929833333333     0.516833333333     0.936450000000    -0.447004   
O26      O      0.929833333333     0.850166666667     0.436450000000    -0.447004   
O26      O      0.929833333333     0.850166666667     0.936450000000    -0.447004   
O27      O      0.270800000000     0.133766666667     0.034000000000    -0.751863   
O27      O      0.270800000000     0.133766666667     0.534000000000    -0.751863   
O27      O      0.270800000000     0.467100000000     0.034000000000    -0.751863   
O27      O      0.270800000000     0.467100000000     0.534000000000    -0.751863   
O27      O      0.270800000000     0.800433333333     0.034000000000    -0.751863   
O27      O      0.270800000000     0.800433333333     0.534000000000    -0.751863   
O27      O      0.604133333333     0.133766666667     0.034000000000    -0.751863   
O27      O      0.604133333333     0.133766666667     0.534000000000    -0.751863   
O27      O      0.604133333333     0.467100000000     0.034000000000    -0.751863   
O27      O      0.604133333333     0.467100000000     0.534000000000    -0.751863   
O27      O      0.604133333333     0.800433333333     0.034000000000    -0.751863   
O27      O      0.604133333333     0.800433333333     0.534000000000    -0.751863   
O27      O      0.937466666667     0.133766666667     0.034000000000    -0.751863   
O27      O      0.937466666667     0.133766666667     0.534000000000    -0.751863   
O27      O      0.937466666667     0.467100000000     0.034000000000    -0.751863   
O27      O      0.937466666667     0.467100000000     0.534000000000    -0.751863   
O27      O      0.937466666667     0.800433333333     0.034000000000    -0.751863   
O27      O      0.937466666667     0.800433333333     0.534000000000    -0.751863   
O28      O      0.025066666667     0.025533333333     0.044000000000    -0.496967   
O28      O      0.025066666667     0.025533333333     0.544000000000    -0.496967   
O28      O      0.025066666667     0.358866666667     0.044000000000    -0.496967   
O28      O      0.025066666667     0.358866666667     0.544000000000    -0.496967   
O28      O      0.025066666667     0.692200000000     0.044000000000    -0.496967   
O28      O      0.025066666667     0.692200000000     0.544000000000    -0.496967   
O28      O      0.358400000000     0.025533333333     0.044000000000    -0.496967   
O28      O      0.358400000000     0.025533333333     0.544000000000    -0.496967   
O28      O      0.358400000000     0.358866666667     0.044000000000    -0.496967   
O28      O      0.358400000000     0.358866666667     0.544000000000    -0.496967   
O28      O      0.358400000000     0.692200000000     0.044000000000    -0.496967   
O28      O      0.358400000000     0.692200000000     0.544000000000    -0.496967   
O28      O      0.691733333333     0.025533333333     0.044000000000    -0.496967   
O28      O      0.691733333333     0.025533333333     0.544000000000    -0.496967   
O28      O      0.691733333333     0.358866666667     0.044000000000    -0.496967   
O28      O      0.691733333333     0.358866666667     0.544000000000    -0.496967   
O28      O      0.691733333333     0.692200000000     0.044000000000    -0.496967   
O28      O      0.691733333333     0.692200000000     0.544000000000    -0.496967   
O29      O      0.323466666667     0.009666666667     0.094200000000    -0.550004   
O29      O      0.323466666667     0.009666666667     0.594200000000    -0.550004   
O29      O      0.323466666667     0.343000000000     0.094200000000    -0.550004   
O29      O      0.323466666667     0.343000000000     0.594200000000    -0.550004   
O29      O      0.323466666667     0.676333333333     0.094200000000    -0.550004   
O29      O      0.323466666667     0.676333333333     0.594200000000    -0.550004   
O29      O      0.656800000000     0.009666666667     0.094200000000    -0.550004   
O29      O      0.656800000000     0.009666666667     0.594200000000    -0.550004   
O29      O      0.656800000000     0.343000000000     0.094200000000    -0.550004   
O29      O      0.656800000000     0.343000000000     0.594200000000    -0.550004   
O29      O      0.656800000000     0.676333333333     0.094200000000    -0.550004   
O29      O      0.656800000000     0.676333333333     0.594200000000    -0.550004   
O29      O      0.990133333333     0.009666666667     0.094200000000    -0.550004   
O29      O      0.990133333333     0.009666666667     0.594200000000    -0.550004   
O29      O      0.990133333333     0.343000000000     0.094200000000    -0.550004   
O29      O      0.990133333333     0.343000000000     0.594200000000    -0.550004   
O29      O      0.990133333333     0.676333333333     0.094200000000    -0.550004   
O29      O      0.990133333333     0.676333333333     0.594200000000    -0.550004   
O30      O      0.259333333333     0.080400000000     0.134000000000    -0.582589   
O30      O      0.259333333333     0.080400000000     0.634000000000    -0.582589   
O30      O      0.259333333333     0.413733333333     0.134000000000    -0.582589   
O30      O      0.259333333333     0.413733333333     0.634000000000    -0.582589   
O30      O      0.259333333333     0.747066666667     0.134000000000    -0.582589   
O30      O      0.259333333333     0.747066666667     0.634000000000    -0.582589   
O30      O      0.592666666667     0.080400000000     0.134000000000    -0.582589   
O30      O      0.592666666667     0.080400000000     0.634000000000    -0.582589   
O30      O      0.592666666667     0.413733333333     0.134000000000    -0.582589   
O30      O      0.592666666667     0.413733333333     0.634000000000    -0.582589   
O30      O      0.592666666667     0.747066666667     0.134000000000    -0.582589   
O30      O      0.592666666667     0.747066666667     0.634000000000    -0.582589   
O30      O      0.926000000000     0.080400000000     0.134000000000    -0.582589   
O30      O      0.926000000000     0.080400000000     0.634000000000    -0.582589   
O30      O      0.926000000000     0.413733333333     0.134000000000    -0.582589   
O30      O      0.926000000000     0.413733333333     0.634000000000    -0.582589   
O30      O      0.926000000000     0.747066666667     0.134000000000    -0.582589   
O30      O      0.926000000000     0.747066666667     0.634000000000    -0.582589   
O31      O      0.227266666667     0.136133333333     0.126650000000    -0.700772   
O31      O      0.227266666667     0.136133333333     0.626650000000    -0.700772   
O31      O      0.227266666667     0.469466666667     0.126650000000    -0.700772   
O31      O      0.227266666667     0.469466666667     0.626650000000    -0.700772   
O31      O      0.227266666667     0.802800000000     0.126650000000    -0.700772   
O31      O      0.227266666667     0.802800000000     0.626650000000    -0.700772   
O31      O      0.560600000000     0.136133333333     0.126650000000    -0.700772   
O31      O      0.560600000000     0.136133333333     0.626650000000    -0.700772   
O31      O      0.560600000000     0.469466666667     0.126650000000    -0.700772   
O31      O      0.560600000000     0.469466666667     0.626650000000    -0.700772   
O31      O      0.560600000000     0.802800000000     0.126650000000    -0.700772   
O31      O      0.560600000000     0.802800000000     0.626650000000    -0.700772   
O31      O      0.893933333333     0.136133333333     0.126650000000    -0.700772   
O31      O      0.893933333333     0.136133333333     0.626650000000    -0.700772   
O31      O      0.893933333333     0.469466666667     0.126650000000    -0.700772   
O31      O      0.893933333333     0.469466666667     0.626650000000    -0.700772   
O31      O      0.893933333333     0.802800000000     0.126650000000    -0.700772   
O31      O      0.893933333333     0.802800000000     0.626650000000    -0.700772   
O32      O      0.150366666667     0.185300000000     0.103550000000    -0.844287   
O32      O      0.150366666667     0.185300000000     0.603550000000    -0.844287   
O32      O      0.150366666667     0.518633333333     0.103550000000    -0.844287   
O32      O      0.150366666667     0.518633333333     0.603550000000    -0.844287   
O32      O      0.150366666667     0.851966666667     0.103550000000    -0.844287   
O32      O      0.150366666667     0.851966666667     0.603550000000    -0.844287   
O32      O      0.483700000000     0.185300000000     0.103550000000    -0.844287   
O32      O      0.483700000000     0.185300000000     0.603550000000    -0.844287   
O32      O      0.483700000000     0.518633333333     0.103550000000    -0.844287   
O32      O      0.483700000000     0.518633333333     0.603550000000    -0.844287   
O32      O      0.483700000000     0.851966666667     0.103550000000    -0.844287   
O32      O      0.483700000000     0.851966666667     0.603550000000    -0.844287   
O32      O      0.817033333333     0.185300000000     0.103550000000    -0.844287   
O32      O      0.817033333333     0.185300000000     0.603550000000    -0.844287   
O32      O      0.817033333333     0.518633333333     0.103550000000    -0.844287   
O32      O      0.817033333333     0.518633333333     0.603550000000    -0.844287   
O32      O      0.817033333333     0.851966666667     0.103550000000    -0.844287   
O32      O      0.817033333333     0.851966666667     0.603550000000    -0.844287   
O33      O      0.185366666667     0.184666666667     0.045100000000    -0.588202   
O33      O      0.185366666667     0.184666666667     0.545100000000    -0.588202   
O33      O      0.185366666667     0.518000000000     0.045100000000    -0.588202   
O33      O      0.185366666667     0.518000000000     0.545100000000    -0.588202   
O33      O      0.185366666667     0.851333333333     0.045100000000    -0.588202   
O33      O      0.185366666667     0.851333333333     0.545100000000    -0.588202   
O33      O      0.518700000000     0.184666666667     0.045100000000    -0.588202   
O33      O      0.518700000000     0.184666666667     0.545100000000    -0.588202   
O33      O      0.518700000000     0.518000000000     0.045100000000    -0.588202   
O33      O      0.518700000000     0.518000000000     0.545100000000    -0.588202   
O33      O      0.518700000000     0.851333333333     0.045100000000    -0.588202   
O33      O      0.518700000000     0.851333333333     0.545100000000    -0.588202   
O33      O      0.852033333333     0.184666666667     0.045100000000    -0.588202   
O33      O      0.852033333333     0.184666666667     0.545100000000    -0.588202   
O33      O      0.852033333333     0.518000000000     0.045100000000    -0.588202   
O33      O      0.852033333333     0.518000000000     0.545100000000    -0.588202   
O33      O      0.852033333333     0.851333333333     0.045100000000    -0.588202   
O33      O      0.852033333333     0.851333333333     0.545100000000    -0.588202   
O34      O      0.177166666667     0.202366666667     0.301350000000     0.440155   
O34      O      0.177166666667     0.202366666667     0.801350000000     0.440155   
O34      O      0.177166666667     0.535700000000     0.301350000000     0.440155   
O34      O      0.177166666667     0.535700000000     0.801350000000     0.440155   
O34      O      0.177166666667     0.869033333333     0.301350000000     0.440155   
O34      O      0.177166666667     0.869033333333     0.801350000000     0.440155   
O34      O      0.510500000000     0.202366666667     0.301350000000     0.440155   
O34      O      0.510500000000     0.202366666667     0.801350000000     0.440155   
O34      O      0.510500000000     0.535700000000     0.301350000000     0.440155   
O34      O      0.510500000000     0.535700000000     0.801350000000     0.440155   
O34      O      0.510500000000     0.869033333333     0.301350000000     0.440155   
O34      O      0.510500000000     0.869033333333     0.801350000000     0.440155   
O34      O      0.843833333333     0.202366666667     0.301350000000     0.440155   
O34      O      0.843833333333     0.202366666667     0.801350000000     0.440155   
O34      O      0.843833333333     0.535700000000     0.301350000000     0.440155   
O34      O      0.843833333333     0.535700000000     0.801350000000     0.440155   
O34      O      0.843833333333     0.869033333333     0.301350000000     0.440155   
O34      O      0.843833333333     0.869033333333     0.801350000000     0.440155   
O35      O      0.127000000000     0.248366666667     0.281250000000     0.451931   
O35      O      0.127000000000     0.248366666667     0.781250000000     0.451931   
O35      O      0.127000000000     0.581700000000     0.281250000000     0.451931   
O35      O      0.127000000000     0.581700000000     0.781250000000     0.451931   
O35      O      0.127000000000     0.915033333333     0.281250000000     0.451931   
O35      O      0.127000000000     0.915033333333     0.781250000000     0.451931   
O35      O      0.460333333333     0.248366666667     0.281250000000     0.451931   
O35      O      0.460333333333     0.248366666667     0.781250000000     0.451931   
O35      O      0.460333333333     0.581700000000     0.281250000000     0.451931   
O35      O      0.460333333333     0.581700000000     0.781250000000     0.451931   
O35      O      0.460333333333     0.915033333333     0.281250000000     0.451931   
O35      O      0.460333333333     0.915033333333     0.781250000000     0.451931   
O35      O      0.793666666667     0.248366666667     0.281250000000     0.451931   
O35      O      0.793666666667     0.248366666667     0.781250000000     0.451931   
O35      O      0.793666666667     0.581700000000     0.281250000000     0.451931   
O35      O      0.793666666667     0.581700000000     0.781250000000     0.451931   
O35      O      0.793666666667     0.915033333333     0.281250000000     0.451931   
O35      O      0.793666666667     0.915033333333     0.781250000000     0.451931   
O36      O      0.091600000000     0.321800000000     0.291650000000     0.417059   
O36      O      0.091600000000     0.321800000000     0.791650000000     0.417059   
O36      O      0.091600000000     0.655133333333     0.291650000000     0.417059   
O36      O      0.091600000000     0.655133333333     0.791650000000     0.417059   
O36      O      0.091600000000     0.988466666667     0.291650000000     0.417059   
O36      O      0.091600000000     0.988466666667     0.791650000000     0.417059   
O36      O      0.424933333333     0.321800000000     0.291650000000     0.417059   
O36      O      0.424933333333     0.321800000000     0.791650000000     0.417059   
O36      O      0.424933333333     0.655133333333     0.291650000000     0.417059   
O36      O      0.424933333333     0.655133333333     0.791650000000     0.417059   
O36      O      0.424933333333     0.988466666667     0.291650000000     0.417059   
O36      O      0.424933333333     0.988466666667     0.791650000000     0.417059   
O36      O      0.758266666667     0.321800000000     0.291650000000     0.417059   
O36      O      0.758266666667     0.321800000000     0.791650000000     0.417059   
O36      O      0.758266666667     0.655133333333     0.291650000000     0.417059   
O36      O      0.758266666667     0.655133333333     0.791650000000     0.417059   
O36      O      0.758266666667     0.988466666667     0.291650000000     0.417059   
O36      O      0.758266666667     0.988466666667     0.791650000000     0.417059   
O37      O      0.043100000000     0.182466666667     0.283350000000     0.440149   
O37      O      0.043100000000     0.182466666667     0.783350000000     0.440149   
O37      O      0.043100000000     0.515800000000     0.283350000000     0.440149   
O37      O      0.043100000000     0.515800000000     0.783350000000     0.440149   
O37      O      0.043100000000     0.849133333333     0.283350000000     0.440149   
O37      O      0.043100000000     0.849133333333     0.783350000000     0.440149   
O37      O      0.376433333333     0.182466666667     0.283350000000     0.440149   
O37      O      0.376433333333     0.182466666667     0.783350000000     0.440149   
O37      O      0.376433333333     0.515800000000     0.283350000000     0.440149   
O37      O      0.376433333333     0.515800000000     0.783350000000     0.440149   
O37      O      0.376433333333     0.849133333333     0.283350000000     0.440149   
O37      O      0.376433333333     0.849133333333     0.783350000000     0.440149   
O37      O      0.709766666667     0.182466666667     0.283350000000     0.440149   
O37      O      0.709766666667     0.182466666667     0.783350000000     0.440149   
O37      O      0.709766666667     0.515800000000     0.283350000000     0.440149   
O37      O      0.709766666667     0.515800000000     0.783350000000     0.440149   
O37      O      0.709766666667     0.849133333333     0.283350000000     0.440149   
O37      O      0.709766666667     0.849133333333     0.783350000000     0.440149   
O38      O      0.127533333333     0.315166666667     0.234300000000     0.433795   
O38      O      0.127533333333     0.315166666667     0.734300000000     0.433795   
O38      O      0.127533333333     0.648500000000     0.234300000000     0.433795   
O38      O      0.127533333333     0.648500000000     0.734300000000     0.433795   
O38      O      0.127533333333     0.981833333333     0.234300000000     0.433795   
O38      O      0.127533333333     0.981833333333     0.734300000000     0.433795   
O38      O      0.460866666667     0.315166666667     0.234300000000     0.433795   
O38      O      0.460866666667     0.315166666667     0.734300000000     0.433795   
O38      O      0.460866666667     0.648500000000     0.234300000000     0.433795   
O38      O      0.460866666667     0.648500000000     0.734300000000     0.433795   
O38      O      0.460866666667     0.981833333333     0.234300000000     0.433795   
O38      O      0.460866666667     0.981833333333     0.734300000000     0.433795   
O38      O      0.794200000000     0.315166666667     0.234300000000     0.433795   
O38      O      0.794200000000     0.315166666667     0.734300000000     0.433795   
O38      O      0.794200000000     0.648500000000     0.234300000000     0.433795   
O38      O      0.794200000000     0.648500000000     0.734300000000     0.433795   
O38      O      0.794200000000     0.981833333333     0.234300000000     0.433795   
O38      O      0.794200000000     0.981833333333     0.734300000000     0.433795   
O39      O      0.290233333333     0.150866666667     0.216650000000     0.441851   
O39      O      0.290233333333     0.150866666667     0.716650000000     0.441851   
O39      O      0.290233333333     0.484200000000     0.216650000000     0.441851   
O39      O      0.290233333333     0.484200000000     0.716650000000     0.441851   
O39      O      0.290233333333     0.817533333333     0.216650000000     0.441851   
O39      O      0.290233333333     0.817533333333     0.716650000000     0.441851   
O39      O      0.623566666667     0.150866666667     0.216650000000     0.441851   
O39      O      0.623566666667     0.150866666667     0.716650000000     0.441851   
O39      O      0.623566666667     0.484200000000     0.216650000000     0.441851   
O39      O      0.623566666667     0.484200000000     0.716650000000     0.441851   
O39      O      0.623566666667     0.817533333333     0.216650000000     0.441851   
O39      O      0.623566666667     0.817533333333     0.716650000000     0.441851   
O39      O      0.956900000000     0.150866666667     0.216650000000     0.441851   
O39      O      0.956900000000     0.150866666667     0.716650000000     0.441851   
O39      O      0.956900000000     0.484200000000     0.216650000000     0.441851   
O39      O      0.956900000000     0.484200000000     0.716650000000     0.441851   
O39      O      0.956900000000     0.817533333333     0.216650000000     0.441851   
O39      O      0.956900000000     0.817533333333     0.716650000000     0.441851   
O40      O      0.315633333333     0.087733333333     0.065000000000     0.431803   
O40      O      0.315633333333     0.087733333333     0.565000000000     0.431803   
O40      O      0.315633333333     0.421066666667     0.065000000000     0.431803   
O40      O      0.315633333333     0.421066666667     0.565000000000     0.431803   
O40      O      0.315633333333     0.754400000000     0.065000000000     0.431803   
O40      O      0.315633333333     0.754400000000     0.565000000000     0.431803   
O40      O      0.648966666667     0.087733333333     0.065000000000     0.431803   
O40      O      0.648966666667     0.087733333333     0.565000000000     0.431803   
O40      O      0.648966666667     0.421066666667     0.065000000000     0.431803   
O40      O      0.648966666667     0.421066666667     0.565000000000     0.431803   
O40      O      0.648966666667     0.754400000000     0.065000000000     0.431803   
O40      O      0.648966666667     0.754400000000     0.565000000000     0.431803   
O40      O      0.982300000000     0.087733333333     0.065000000000     0.431803   
O40      O      0.982300000000     0.087733333333     0.565000000000     0.431803   
O40      O      0.982300000000     0.421066666667     0.065000000000     0.431803   
O40      O      0.982300000000     0.421066666667     0.565000000000     0.431803   
O40      O      0.982300000000     0.754400000000     0.065000000000     0.431803   
O40      O      0.982300000000     0.754400000000     0.565000000000     0.431803   
O41      O      0.272966666667     0.142666666667     0.284450000000     0.417036   
O41      O      0.272966666667     0.142666666667     0.784450000000     0.417036   
O41      O      0.272966666667     0.476000000000     0.284450000000     0.417036   
O41      O      0.272966666667     0.476000000000     0.784450000000     0.417036   
O41      O      0.272966666667     0.809333333333     0.284450000000     0.417036   
O41      O      0.272966666667     0.809333333333     0.784450000000     0.417036   
O41      O      0.606300000000     0.142666666667     0.284450000000     0.417036   
O41      O      0.606300000000     0.142666666667     0.784450000000     0.417036   
O41      O      0.606300000000     0.476000000000     0.284450000000     0.417036   
O41      O      0.606300000000     0.476000000000     0.784450000000     0.417036   
O41      O      0.606300000000     0.809333333333     0.284450000000     0.417036   
O41      O      0.606300000000     0.809333333333     0.784450000000     0.417036   
O41      O      0.939633333333     0.142666666667     0.284450000000     0.417036   
O41      O      0.939633333333     0.142666666667     0.784450000000     0.417036   
O41      O      0.939633333333     0.476000000000     0.284450000000     0.417036   
O41      O      0.939633333333     0.476000000000     0.784450000000     0.417036   
O41      O      0.939633333333     0.809333333333     0.284450000000     0.417036   
O41      O      0.939633333333     0.809333333333     0.784450000000     0.417036   
O42      O      0.216466666667     0.194800000000     0.211100000000     0.45193    
O42      O      0.216466666667     0.194800000000     0.711100000000     0.45193    
O42      O      0.216466666667     0.528133333333     0.211100000000     0.45193    
O42      O      0.216466666667     0.528133333333     0.711100000000     0.45193    
O42      O      0.216466666667     0.861466666667     0.211100000000     0.45193    
O42      O      0.216466666667     0.861466666667     0.711100000000     0.45193    
O42      O      0.549800000000     0.194800000000     0.211100000000     0.45193    
O42      O      0.549800000000     0.194800000000     0.711100000000     0.45193    
O42      O      0.549800000000     0.528133333333     0.211100000000     0.45193    
O42      O      0.549800000000     0.528133333333     0.711100000000     0.45193    
O42      O      0.549800000000     0.861466666667     0.211100000000     0.45193    
O42      O      0.549800000000     0.861466666667     0.711100000000     0.45193    
O42      O      0.883133333333     0.194800000000     0.211100000000     0.45193    
O42      O      0.883133333333     0.194800000000     0.711100000000     0.45193    
O42      O      0.883133333333     0.528133333333     0.211100000000     0.45193    
O42      O      0.883133333333     0.528133333333     0.711100000000     0.45193    
O42      O      0.883133333333     0.861466666667     0.211100000000     0.45193    
O42      O      0.883133333333     0.861466666667     0.711100000000     0.45193    
O43      O      0.191733333333     0.250300000000     0.190350000000     0.441847   
O43      O      0.191733333333     0.250300000000     0.690350000000     0.441847   
O43      O      0.191733333333     0.583633333333     0.190350000000     0.441847   
O43      O      0.191733333333     0.583633333333     0.690350000000     0.441847   
O43      O      0.191733333333     0.916966666667     0.190350000000     0.441847   
O43      O      0.191733333333     0.916966666667     0.690350000000     0.441847   
O43      O      0.525066666667     0.250300000000     0.190350000000     0.441847   
O43      O      0.525066666667     0.250300000000     0.690350000000     0.441847   
O43      O      0.525066666667     0.583633333333     0.190350000000     0.441847   
O43      O      0.525066666667     0.583633333333     0.690350000000     0.441847   
O43      O      0.525066666667     0.916966666667     0.190350000000     0.441847   
O43      O      0.525066666667     0.916966666667     0.690350000000     0.441847   
O43      O      0.858400000000     0.250300000000     0.190350000000     0.441847   
O43      O      0.858400000000     0.250300000000     0.690350000000     0.441847   
O43      O      0.858400000000     0.583633333333     0.190350000000     0.441847   
O43      O      0.858400000000     0.583633333333     0.690350000000     0.441847   
O43      O      0.858400000000     0.916966666667     0.190350000000     0.441847   
O43      O      0.858400000000     0.916966666667     0.690350000000     0.441847   
O44      O      0.269733333333     0.204500000000     0.144600000000     0.431809   
O44      O      0.269733333333     0.204500000000     0.644600000000     0.431809   
O44      O      0.269733333333     0.537833333333     0.144600000000     0.431809   
O44      O      0.269733333333     0.537833333333     0.644600000000     0.431809   
O44      O      0.269733333333     0.871166666667     0.144600000000     0.431809   
O44      O      0.269733333333     0.871166666667     0.644600000000     0.431809   
O44      O      0.603066666667     0.204500000000     0.144600000000     0.431809   
O44      O      0.603066666667     0.204500000000     0.644600000000     0.431809   
O44      O      0.603066666667     0.537833333333     0.144600000000     0.431809   
O44      O      0.603066666667     0.537833333333     0.644600000000     0.431809   
O44      O      0.603066666667     0.871166666667     0.144600000000     0.431809   
O44      O      0.603066666667     0.871166666667     0.644600000000     0.431809   
O44      O      0.936400000000     0.204500000000     0.144600000000     0.431809   
O44      O      0.936400000000     0.204500000000     0.644600000000     0.431809   
O44      O      0.936400000000     0.537833333333     0.144600000000     0.431809   
O44      O      0.936400000000     0.537833333333     0.644600000000     0.431809   
O44      O      0.936400000000     0.871166666667     0.144600000000     0.431809   
O44      O      0.936400000000     0.871166666667     0.644600000000     0.431809   
O45      O      0.243566666667     0.247566666667     0.092550000000     0.433795   
O45      O      0.243566666667     0.247566666667     0.592550000000     0.433795   
O45      O      0.243566666667     0.580900000000     0.092550000000     0.433795   
O45      O      0.243566666667     0.580900000000     0.592550000000     0.433795   
O45      O      0.243566666667     0.914233333333     0.092550000000     0.433795   
O45      O      0.243566666667     0.914233333333     0.592550000000     0.433795   
O45      O      0.576900000000     0.247566666667     0.092550000000     0.433795   
O45      O      0.576900000000     0.247566666667     0.592550000000     0.433795   
O45      O      0.576900000000     0.580900000000     0.092550000000     0.433795   
O45      O      0.576900000000     0.580900000000     0.592550000000     0.433795   
O45      O      0.576900000000     0.914233333333     0.092550000000     0.433795   
O45      O      0.576900000000     0.914233333333     0.592550000000     0.433795   
O45      O      0.910233333333     0.247566666667     0.092550000000     0.433795   
O45      O      0.910233333333     0.247566666667     0.592550000000     0.433795   
O45      O      0.910233333333     0.580900000000     0.092550000000     0.433795   
O45      O      0.910233333333     0.580900000000     0.592550000000     0.433795   
O45      O      0.910233333333     0.914233333333     0.092550000000     0.433795   
O45      O      0.910233333333     0.914233333333     0.592550000000     0.433795   
O46      O      0.200333333333     0.317300000000     0.114400000000     0.050469   
O46      O      0.200333333333     0.317300000000     0.614400000000     0.050469   
O46      O      0.200333333333     0.650633333333     0.114400000000     0.050469   
O46      O      0.200333333333     0.650633333333     0.614400000000     0.050469   
O46      O      0.200333333333     0.983966666667     0.114400000000     0.050469   
O46      O      0.200333333333     0.983966666667     0.614400000000     0.050469   
O46      O      0.533666666667     0.317300000000     0.114400000000     0.050469   
O46      O      0.533666666667     0.317300000000     0.614400000000     0.050469   
O46      O      0.533666666667     0.650633333333     0.114400000000     0.050469   
O46      O      0.533666666667     0.650633333333     0.614400000000     0.050469   
O46      O      0.533666666667     0.983966666667     0.114400000000     0.050469   
O46      O      0.533666666667     0.983966666667     0.614400000000     0.050469   
O46      O      0.867000000000     0.317300000000     0.114400000000     0.050469   
O46      O      0.867000000000     0.317300000000     0.614400000000     0.050469   
O46      O      0.867000000000     0.650633333333     0.114400000000     0.050469   
O46      O      0.867000000000     0.650633333333     0.614400000000     0.050469   
O46      O      0.867000000000     0.983966666667     0.114400000000     0.050469   
O46      O      0.867000000000     0.983966666667     0.614400000000     0.050469   
O47      O      0.239600000000     0.320100000000     0.061000000000     0.036881   
O47      O      0.239600000000     0.320100000000     0.561000000000     0.036881   
O47      O      0.239600000000     0.653433333333     0.061000000000     0.036881   
O47      O      0.239600000000     0.653433333333     0.561000000000     0.036881   
O47      O      0.239600000000     0.986766666667     0.061000000000     0.036881   
O47      O      0.239600000000     0.986766666667     0.561000000000     0.036881   
O47      O      0.572933333333     0.320100000000     0.061000000000     0.036881   
O47      O      0.572933333333     0.320100000000     0.561000000000     0.036881   
O47      O      0.572933333333     0.653433333333     0.061000000000     0.036881   
O47      O      0.572933333333     0.653433333333     0.561000000000     0.036881   
O47      O      0.572933333333     0.986766666667     0.061000000000     0.036881   
O47      O      0.572933333333     0.986766666667     0.561000000000     0.036881   
O47      O      0.906266666667     0.320100000000     0.061000000000     0.036881   
O47      O      0.906266666667     0.320100000000     0.561000000000     0.036881   
O47      O      0.906266666667     0.653433333333     0.061000000000     0.036881   
O47      O      0.906266666667     0.653433333333     0.561000000000     0.036881   
O47      O      0.906266666667     0.986766666667     0.061000000000     0.036881   
O47      O      0.906266666667     0.986766666667     0.561000000000     0.036881   
O48      O      0.023300000000     0.083300000000     0.482350000000     0.079895   
O48      O      0.023300000000     0.083300000000     0.982350000000     0.079895   
O48      O      0.023300000000     0.416633333333     0.482350000000     0.079895   
O48      O      0.023300000000     0.416633333333     0.982350000000     0.079895   
O48      O      0.023300000000     0.749966666667     0.482350000000     0.079895   
O48      O      0.023300000000     0.749966666667     0.982350000000     0.079895   
O48      O      0.356633333333     0.083300000000     0.482350000000     0.079895   
O48      O      0.356633333333     0.083300000000     0.982350000000     0.079895   
O48      O      0.356633333333     0.416633333333     0.482350000000     0.079895   
O48      O      0.356633333333     0.416633333333     0.982350000000     0.079895   
O48      O      0.356633333333     0.749966666667     0.482350000000     0.079895   
O48      O      0.356633333333     0.749966666667     0.982350000000     0.079895   
O48      O      0.689966666667     0.083300000000     0.482350000000     0.079895   
O48      O      0.689966666667     0.083300000000     0.982350000000     0.079895   
O48      O      0.689966666667     0.416633333333     0.482350000000     0.079895   
O48      O      0.689966666667     0.416633333333     0.982350000000     0.079895   
O48      O      0.689966666667     0.749966666667     0.482350000000     0.079895   
O48      O      0.689966666667     0.749966666667     0.982350000000     0.079895   
O49      O      0.231200000000     0.128233333333     0.217800000000     0.007393   
O49      O      0.231200000000     0.128233333333     0.717800000000     0.007393   
O49      O      0.231200000000     0.461566666667     0.217800000000     0.007393   
O49      O      0.231200000000     0.461566666667     0.717800000000     0.007393   
O49      O      0.231200000000     0.794900000000     0.217800000000     0.007393   
O49      O      0.231200000000     0.794900000000     0.717800000000     0.007393   
O49      O      0.564533333333     0.128233333333     0.217800000000     0.007393   
O49      O      0.564533333333     0.128233333333     0.717800000000     0.007393   
O49      O      0.564533333333     0.461566666667     0.217800000000     0.007393   
O49      O      0.564533333333     0.461566666667     0.717800000000     0.007393   
O49      O      0.564533333333     0.794900000000     0.217800000000     0.007393   
O49      O      0.564533333333     0.794900000000     0.717800000000     0.007393   
O49      O      0.897866666667     0.128233333333     0.217800000000     0.007393   
O49      O      0.897866666667     0.128233333333     0.717800000000     0.007393   
O49      O      0.897866666667     0.461566666667     0.217800000000     0.007393   
O49      O      0.897866666667     0.461566666667     0.717800000000     0.007393   
O49      O      0.897866666667     0.794900000000     0.217800000000     0.007393   
O49      O      0.897866666667     0.794900000000     0.717800000000     0.007393   
O50      O      0.295100000000     0.185800000000     0.375800000000     0.549324   
O50      O      0.295100000000     0.185800000000     0.875800000000     0.549324   
O50      O      0.295100000000     0.519133333333     0.375800000000     0.549324   
O50      O      0.295100000000     0.519133333333     0.875800000000     0.549324   
O50      O      0.295100000000     0.852466666667     0.375800000000     0.549324   
O50      O      0.295100000000     0.852466666667     0.875800000000     0.549324   
O50      O      0.628433333333     0.185800000000     0.375800000000     0.549324   
O50      O      0.628433333333     0.185800000000     0.875800000000     0.549324   
O50      O      0.628433333333     0.519133333333     0.375800000000     0.549324   
O50      O      0.628433333333     0.519133333333     0.875800000000     0.549324   
O50      O      0.628433333333     0.852466666667     0.375800000000     0.549324   
O50      O      0.628433333333     0.852466666667     0.875800000000     0.549324   
O50      O      0.961766666667     0.185800000000     0.375800000000     0.549324   
O50      O      0.961766666667     0.185800000000     0.875800000000     0.549324   
O50      O      0.961766666667     0.519133333333     0.375800000000     0.549324   
O50      O      0.961766666667     0.519133333333     0.875800000000     0.549324   
O50      O      0.961766666667     0.852466666667     0.375800000000     0.549324   
O50      O      0.961766666667     0.852466666667     0.875800000000     0.549324   


