data_GAJZOI_clean

_audit_creation_method RASPA-1.0
_audit_creation_date 2025-9-8
_audit_author_name ''

_cell_length_a    5.534
_cell_length_b    13.436
_cell_length_c    20.891
_cell_angle_alpha 90
_cell_angle_beta  96.159
_cell_angle_gamma 90
_cell_volume      55597.7

_symmetry_cell_setting          triclinic
_symmetry_space_group_name_Hall 'P 1'
_symmetry_space_group_name_H-M  'P 1'
_symmetry_Int_Tables_number     1

_symmetry_equiv_pos_as_xyz 'x,y,z'

loop_
_atom_site_label
_atom_site_type_symbol
_atom_site_fract_x
_atom_site_fract_y
_atom_site_fract_z
_atom_site_charge
C        C      0.136833333333     0.012733333333     0.083350000000     0.04       
C        C      0.154000000000     0.021866666667     0.140200000000     0.04       
C        C      0.016333333333     0.036100000000     0.165900000000     0.04       
C        C      0.023666666667     0.073166666667     0.161350000000     0.04       
C        C      0.035166666667     0.077800000000     0.127850000000     0.04       
C        C      0.004333333333     0.062766666667     0.102050000000     0.04       
C        C      0.053666666667     0.088000000000     0.187350000000     0.04       
C        C      0.029833333333     0.179400000000     0.166650000000     0.04       
C        C      0.012666666667     0.188533333333     0.109800000000     0.04       
C        C      0.150333333333     0.202766666667     0.084100000000     0.04       
C        C      0.143000000000     0.239833333333     0.088650000000     0.04       
C        C      0.131500000000     0.244466666667     0.122150000000     0.04       
C        C      0.162333333333     0.229433333333     0.147950000000     0.04       
C        C      0.113000000000     0.254666666667     0.062650000000     0.04       
C        C      0.029833333333     0.320600000000     0.416650000000     0.04       
C        C      0.012666666667     0.311466666667     0.359800000000     0.04       
C        C      0.150333333333     0.297233333333     0.334100000000     0.04       
C        C      0.143000000000     0.260166666667     0.338650000000     0.04       
C        C      0.131500000000     0.255533333333     0.372150000000     0.04       
C        C      0.162333333333     0.270566666667     0.397950000000     0.04       
C        C      0.113000000000     0.245333333333     0.312650000000     0.04       
C        C      0.136833333333     0.153933333333     0.333350000000     0.04       
C        C      0.154000000000     0.144800000000     0.390200000000     0.04       
C        C      0.016333333333     0.130566666667     0.415900000000     0.04       
C        C      0.023666666667     0.093500000000     0.411350000000     0.04       
C        C      0.035166666667     0.088866666667     0.377850000000     0.04       
C        C      0.004333333333     0.103900000000     0.352050000000     0.04       
C        C      0.053666666667     0.078666666667     0.437350000000     0.04       
C        C      0.136833333333     0.012733333333     0.583350000000     0.04       
C        C      0.154000000000     0.021866666667     0.640200000000     0.04       
C        C      0.016333333333     0.036100000000     0.665900000000     0.04       
C        C      0.023666666667     0.073166666667     0.661350000000     0.04       
C        C      0.035166666667     0.077800000000     0.627850000000     0.04       
C        C      0.004333333333     0.062766666667     0.602050000000     0.04       
C        C      0.053666666667     0.088000000000     0.687350000000     0.04       
C        C      0.029833333333     0.179400000000     0.666650000000     0.04       
C        C      0.012666666667     0.188533333333     0.609800000000     0.04       
C        C      0.150333333333     0.202766666667     0.584100000000     0.04       
C        C      0.143000000000     0.239833333333     0.588650000000     0.04       
C        C      0.131500000000     0.244466666667     0.622150000000     0.04       
C        C      0.162333333333     0.229433333333     0.647950000000     0.04       
C        C      0.113000000000     0.254666666667     0.562650000000     0.04       
C        C      0.029833333333     0.320600000000     0.916650000000     0.04       
C        C      0.012666666667     0.311466666667     0.859800000000     0.04       
C        C      0.150333333333     0.297233333333     0.834100000000     0.04       
C        C      0.143000000000     0.260166666667     0.838650000000     0.04       
C        C      0.131500000000     0.255533333333     0.872150000000     0.04       
C        C      0.162333333333     0.270566666667     0.897950000000     0.04       
C        C      0.113000000000     0.245333333333     0.812650000000     0.04       
C        C      0.136833333333     0.153933333333     0.833350000000     0.04       
C        C      0.154000000000     0.144800000000     0.890200000000     0.04       
C        C      0.016333333333     0.130566666667     0.915900000000     0.04       
C        C      0.023666666667     0.093500000000     0.911350000000     0.04       
C        C      0.035166666667     0.088866666667     0.877850000000     0.04       
C        C      0.004333333333     0.103900000000     0.852050000000     0.04       
C        C      0.053666666667     0.078666666667     0.937350000000     0.04       
C        C      0.136833333333     0.346066666667     0.083350000000     0.04       
C        C      0.154000000000     0.355200000000     0.140200000000     0.04       
C        C      0.016333333333     0.369433333333     0.165900000000     0.04       
C        C      0.023666666667     0.406500000000     0.161350000000     0.04       
C        C      0.035166666667     0.411133333333     0.127850000000     0.04       
C        C      0.004333333333     0.396100000000     0.102050000000     0.04       
C        C      0.053666666667     0.421333333333     0.187350000000     0.04       
C        C      0.029833333333     0.512733333333     0.166650000000     0.04       
C        C      0.012666666667     0.521866666667     0.109800000000     0.04       
C        C      0.150333333333     0.536100000000     0.084100000000     0.04       
C        C      0.143000000000     0.573166666667     0.088650000000     0.04       
C        C      0.131500000000     0.577800000000     0.122150000000     0.04       
C        C      0.162333333333     0.562766666667     0.147950000000     0.04       
C        C      0.113000000000     0.588000000000     0.062650000000     0.04       
C        C      0.029833333333     0.653933333333     0.416650000000     0.04       
C        C      0.012666666667     0.644800000000     0.359800000000     0.04       
C        C      0.150333333333     0.630566666667     0.334100000000     0.04       
C        C      0.143000000000     0.593500000000     0.338650000000     0.04       
C        C      0.131500000000     0.588866666667     0.372150000000     0.04       
C        C      0.162333333333     0.603900000000     0.397950000000     0.04       
C        C      0.113000000000     0.578666666667     0.312650000000     0.04       
C        C      0.136833333333     0.487266666667     0.333350000000     0.04       
C        C      0.154000000000     0.478133333333     0.390200000000     0.04       
C        C      0.016333333333     0.463900000000     0.415900000000     0.04       
C        C      0.023666666667     0.426833333333     0.411350000000     0.04       
C        C      0.035166666667     0.422200000000     0.377850000000     0.04       
C        C      0.004333333333     0.437233333333     0.352050000000     0.04       
C        C      0.053666666667     0.412000000000     0.437350000000     0.04       
C        C      0.136833333333     0.346066666667     0.583350000000     0.04       
C        C      0.154000000000     0.355200000000     0.640200000000     0.04       
C        C      0.016333333333     0.369433333333     0.665900000000     0.04       
C        C      0.023666666667     0.406500000000     0.661350000000     0.04       
C        C      0.035166666667     0.411133333333     0.627850000000     0.04       
C        C      0.004333333333     0.396100000000     0.602050000000     0.04       
C        C      0.053666666667     0.421333333333     0.687350000000     0.04       
C        C      0.029833333333     0.512733333333     0.666650000000     0.04       
C        C      0.012666666667     0.521866666667     0.609800000000     0.04       
C        C      0.150333333333     0.536100000000     0.584100000000     0.04       
C        C      0.143000000000     0.573166666667     0.588650000000     0.04       
C        C      0.131500000000     0.577800000000     0.622150000000     0.04       
C        C      0.162333333333     0.562766666667     0.647950000000     0.04       
C        C      0.113000000000     0.588000000000     0.562650000000     0.04       
C        C      0.029833333333     0.653933333333     0.916650000000     0.04       
C        C      0.012666666667     0.644800000000     0.859800000000     0.04       
C        C      0.150333333333     0.630566666667     0.834100000000     0.04       
C        C      0.143000000000     0.593500000000     0.838650000000     0.04       
C        C      0.131500000000     0.588866666667     0.872150000000     0.04       
C        C      0.162333333333     0.603900000000     0.897950000000     0.04       
C        C      0.113000000000     0.578666666667     0.812650000000     0.04       
C        C      0.136833333333     0.487266666667     0.833350000000     0.04       
C        C      0.154000000000     0.478133333333     0.890200000000     0.04       
C        C      0.016333333333     0.463900000000     0.915900000000     0.04       
C        C      0.023666666667     0.426833333333     0.911350000000     0.04       
C        C      0.035166666667     0.422200000000     0.877850000000     0.04       
C        C      0.004333333333     0.437233333333     0.852050000000     0.04       
C        C      0.053666666667     0.412000000000     0.937350000000     0.04       
C        C      0.136833333333     0.679400000000     0.083350000000     0.04       
C        C      0.154000000000     0.688533333333     0.140200000000     0.04       
C        C      0.016333333333     0.702766666667     0.165900000000     0.04       
C        C      0.023666666667     0.739833333333     0.161350000000     0.04       
C        C      0.035166666667     0.744466666667     0.127850000000     0.04       
C        C      0.004333333333     0.729433333333     0.102050000000     0.04       
C        C      0.053666666667     0.754666666667     0.187350000000     0.04       
C        C      0.029833333333     0.846066666667     0.166650000000     0.04       
C        C      0.012666666667     0.855200000000     0.109800000000     0.04       
C        C      0.150333333333     0.869433333333     0.084100000000     0.04       
C        C      0.143000000000     0.906500000000     0.088650000000     0.04       
C        C      0.131500000000     0.911133333333     0.122150000000     0.04       
C        C      0.162333333333     0.896100000000     0.147950000000     0.04       
C        C      0.113000000000     0.921333333333     0.062650000000     0.04       
C        C      0.029833333333     0.987266666667     0.416650000000     0.04       
C        C      0.012666666667     0.978133333333     0.359800000000     0.04       
C        C      0.150333333333     0.963900000000     0.334100000000     0.04       
C        C      0.143000000000     0.926833333333     0.338650000000     0.04       
C        C      0.131500000000     0.922200000000     0.372150000000     0.04       
C        C      0.162333333333     0.937233333333     0.397950000000     0.04       
C        C      0.113000000000     0.912000000000     0.312650000000     0.04       
C        C      0.136833333333     0.820600000000     0.333350000000     0.04       
C        C      0.154000000000     0.811466666667     0.390200000000     0.04       
C        C      0.016333333333     0.797233333333     0.415900000000     0.04       
C        C      0.023666666667     0.760166666667     0.411350000000     0.04       
C        C      0.035166666667     0.755533333333     0.377850000000     0.04       
C        C      0.004333333333     0.770566666667     0.352050000000     0.04       
C        C      0.053666666667     0.745333333333     0.437350000000     0.04       
C        C      0.136833333333     0.679400000000     0.583350000000     0.04       
C        C      0.154000000000     0.688533333333     0.640200000000     0.04       
C        C      0.016333333333     0.702766666667     0.665900000000     0.04       
C        C      0.023666666667     0.739833333333     0.661350000000     0.04       
C        C      0.035166666667     0.744466666667     0.627850000000     0.04       
C        C      0.004333333333     0.729433333333     0.602050000000     0.04       
C        C      0.053666666667     0.754666666667     0.687350000000     0.04       
C        C      0.029833333333     0.846066666667     0.666650000000     0.04       
C        C      0.012666666667     0.855200000000     0.609800000000     0.04       
C        C      0.150333333333     0.869433333333     0.584100000000     0.04       
C        C      0.143000000000     0.906500000000     0.588650000000     0.04       
C        C      0.131500000000     0.911133333333     0.622150000000     0.04       
C        C      0.162333333333     0.896100000000     0.647950000000     0.04       
C        C      0.113000000000     0.921333333333     0.562650000000     0.04       
C        C      0.029833333333     0.987266666667     0.916650000000     0.04       
C        C      0.012666666667     0.978133333333     0.859800000000     0.04       
C        C      0.150333333333     0.963900000000     0.834100000000     0.04       
C        C      0.143000000000     0.926833333333     0.838650000000     0.04       
C        C      0.131500000000     0.922200000000     0.872150000000     0.04       
C        C      0.162333333333     0.937233333333     0.897950000000     0.04       
C        C      0.113000000000     0.912000000000     0.812650000000     0.04       
C        C      0.136833333333     0.820600000000     0.833350000000     0.04       
C        C      0.154000000000     0.811466666667     0.890200000000     0.04       
C        C      0.016333333333     0.797233333333     0.915900000000     0.04       
C        C      0.023666666667     0.760166666667     0.911350000000     0.04       
C        C      0.035166666667     0.755533333333     0.877850000000     0.04       
C        C      0.004333333333     0.770566666667     0.852050000000     0.04       
C        C      0.053666666667     0.745333333333     0.937350000000     0.04       
C        C      0.303500000000     0.012733333333     0.083350000000     0.04       
C        C      0.320666666667     0.021866666667     0.140200000000     0.04       
C        C      0.183000000000     0.036100000000     0.165900000000     0.04       
C        C      0.190333333333     0.073166666667     0.161350000000     0.04       
C        C      0.201833333333     0.077800000000     0.127850000000     0.04       
C        C      0.171000000000     0.062766666667     0.102050000000     0.04       
C        C      0.220333333333     0.088000000000     0.187350000000     0.04       
C        C      0.196500000000     0.179400000000     0.166650000000     0.04       
C        C      0.179333333333     0.188533333333     0.109800000000     0.04       
C        C      0.317000000000     0.202766666667     0.084100000000     0.04       
C        C      0.309666666667     0.239833333333     0.088650000000     0.04       
C        C      0.298166666667     0.244466666667     0.122150000000     0.04       
C        C      0.329000000000     0.229433333333     0.147950000000     0.04       
C        C      0.279666666667     0.254666666667     0.062650000000     0.04       
C        C      0.196500000000     0.320600000000     0.416650000000     0.04       
C        C      0.179333333333     0.311466666667     0.359800000000     0.04       
C        C      0.317000000000     0.297233333333     0.334100000000     0.04       
C        C      0.309666666667     0.260166666667     0.338650000000     0.04       
C        C      0.298166666667     0.255533333333     0.372150000000     0.04       
C        C      0.329000000000     0.270566666667     0.397950000000     0.04       
C        C      0.279666666667     0.245333333333     0.312650000000     0.04       
C        C      0.303500000000     0.153933333333     0.333350000000     0.04       
C        C      0.320666666667     0.144800000000     0.390200000000     0.04       
C        C      0.183000000000     0.130566666667     0.415900000000     0.04       
C        C      0.190333333333     0.093500000000     0.411350000000     0.04       
C        C      0.201833333333     0.088866666667     0.377850000000     0.04       
C        C      0.171000000000     0.103900000000     0.352050000000     0.04       
C        C      0.220333333333     0.078666666667     0.437350000000     0.04       
C        C      0.303500000000     0.012733333333     0.583350000000     0.04       
C        C      0.320666666667     0.021866666667     0.640200000000     0.04       
C        C      0.183000000000     0.036100000000     0.665900000000     0.04       
C        C      0.190333333333     0.073166666667     0.661350000000     0.04       
C        C      0.201833333333     0.077800000000     0.627850000000     0.04       
C        C      0.171000000000     0.062766666667     0.602050000000     0.04       
C        C      0.220333333333     0.088000000000     0.687350000000     0.04       
C        C      0.196500000000     0.179400000000     0.666650000000     0.04       
C        C      0.179333333333     0.188533333333     0.609800000000     0.04       
C        C      0.317000000000     0.202766666667     0.584100000000     0.04       
C        C      0.309666666667     0.239833333333     0.588650000000     0.04       
C        C      0.298166666667     0.244466666667     0.622150000000     0.04       
C        C      0.329000000000     0.229433333333     0.647950000000     0.04       
C        C      0.279666666667     0.254666666667     0.562650000000     0.04       
C        C      0.196500000000     0.320600000000     0.916650000000     0.04       
C        C      0.179333333333     0.311466666667     0.859800000000     0.04       
C        C      0.317000000000     0.297233333333     0.834100000000     0.04       
C        C      0.309666666667     0.260166666667     0.838650000000     0.04       
C        C      0.298166666667     0.255533333333     0.872150000000     0.04       
C        C      0.329000000000     0.270566666667     0.897950000000     0.04       
C        C      0.279666666667     0.245333333333     0.812650000000     0.04       
C        C      0.303500000000     0.153933333333     0.833350000000     0.04       
C        C      0.320666666667     0.144800000000     0.890200000000     0.04       
C        C      0.183000000000     0.130566666667     0.915900000000     0.04       
C        C      0.190333333333     0.093500000000     0.911350000000     0.04       
C        C      0.201833333333     0.088866666667     0.877850000000     0.04       
C        C      0.171000000000     0.103900000000     0.852050000000     0.04       
C        C      0.220333333333     0.078666666667     0.937350000000     0.04       
C        C      0.303500000000     0.346066666667     0.083350000000     0.04       
C        C      0.320666666667     0.355200000000     0.140200000000     0.04       
C        C      0.183000000000     0.369433333333     0.165900000000     0.04       
C        C      0.190333333333     0.406500000000     0.161350000000     0.04       
C        C      0.201833333333     0.411133333333     0.127850000000     0.04       
C        C      0.171000000000     0.396100000000     0.102050000000     0.04       
C        C      0.220333333333     0.421333333333     0.187350000000     0.04       
C        C      0.196500000000     0.512733333333     0.166650000000     0.04       
C        C      0.179333333333     0.521866666667     0.109800000000     0.04       
C        C      0.317000000000     0.536100000000     0.084100000000     0.04       
C        C      0.309666666667     0.573166666667     0.088650000000     0.04       
C        C      0.298166666667     0.577800000000     0.122150000000     0.04       
C        C      0.329000000000     0.562766666667     0.147950000000     0.04       
C        C      0.279666666667     0.588000000000     0.062650000000     0.04       
C        C      0.196500000000     0.653933333333     0.416650000000     0.04       
C        C      0.179333333333     0.644800000000     0.359800000000     0.04       
C        C      0.317000000000     0.630566666667     0.334100000000     0.04       
C        C      0.309666666667     0.593500000000     0.338650000000     0.04       
C        C      0.298166666667     0.588866666667     0.372150000000     0.04       
C        C      0.329000000000     0.603900000000     0.397950000000     0.04       
C        C      0.279666666667     0.578666666667     0.312650000000     0.04       
C        C      0.303500000000     0.487266666667     0.333350000000     0.04       
C        C      0.320666666667     0.478133333333     0.390200000000     0.04       
C        C      0.183000000000     0.463900000000     0.415900000000     0.04       
C        C      0.190333333333     0.426833333333     0.411350000000     0.04       
C        C      0.201833333333     0.422200000000     0.377850000000     0.04       
C        C      0.171000000000     0.437233333333     0.352050000000     0.04       
C        C      0.220333333333     0.412000000000     0.437350000000     0.04       
C        C      0.303500000000     0.346066666667     0.583350000000     0.04       
C        C      0.320666666667     0.355200000000     0.640200000000     0.04       
C        C      0.183000000000     0.369433333333     0.665900000000     0.04       
C        C      0.190333333333     0.406500000000     0.661350000000     0.04       
C        C      0.201833333333     0.411133333333     0.627850000000     0.04       
C        C      0.171000000000     0.396100000000     0.602050000000     0.04       
C        C      0.220333333333     0.421333333333     0.687350000000     0.04       
C        C      0.196500000000     0.512733333333     0.666650000000     0.04       
C        C      0.179333333333     0.521866666667     0.609800000000     0.04       
C        C      0.317000000000     0.536100000000     0.584100000000     0.04       
C        C      0.309666666667     0.573166666667     0.588650000000     0.04       
C        C      0.298166666667     0.577800000000     0.622150000000     0.04       
C        C      0.329000000000     0.562766666667     0.647950000000     0.04       
C        C      0.279666666667     0.588000000000     0.562650000000     0.04       
C        C      0.196500000000     0.653933333333     0.916650000000     0.04       
C        C      0.179333333333     0.644800000000     0.859800000000     0.04       
C        C      0.317000000000     0.630566666667     0.834100000000     0.04       
C        C      0.309666666667     0.593500000000     0.838650000000     0.04       
C        C      0.298166666667     0.588866666667     0.872150000000     0.04       
C        C      0.329000000000     0.603900000000     0.897950000000     0.04       
C        C      0.279666666667     0.578666666667     0.812650000000     0.04       
C        C      0.303500000000     0.487266666667     0.833350000000     0.04       
C        C      0.320666666667     0.478133333333     0.890200000000     0.04       
C        C      0.183000000000     0.463900000000     0.915900000000     0.04       
C        C      0.190333333333     0.426833333333     0.911350000000     0.04       
C        C      0.201833333333     0.422200000000     0.877850000000     0.04       
C        C      0.171000000000     0.437233333333     0.852050000000     0.04       
C        C      0.220333333333     0.412000000000     0.937350000000     0.04       
C        C      0.303500000000     0.679400000000     0.083350000000     0.04       
C        C      0.320666666667     0.688533333333     0.140200000000     0.04       
C        C      0.183000000000     0.702766666667     0.165900000000     0.04       
C        C      0.190333333333     0.739833333333     0.161350000000     0.04       
C        C      0.201833333333     0.744466666667     0.127850000000     0.04       
C        C      0.171000000000     0.729433333333     0.102050000000     0.04       
C        C      0.220333333333     0.754666666667     0.187350000000     0.04       
C        C      0.196500000000     0.846066666667     0.166650000000     0.04       
C        C      0.179333333333     0.855200000000     0.109800000000     0.04       
C        C      0.317000000000     0.869433333333     0.084100000000     0.04       
C        C      0.309666666667     0.906500000000     0.088650000000     0.04       
C        C      0.298166666667     0.911133333333     0.122150000000     0.04       
C        C      0.329000000000     0.896100000000     0.147950000000     0.04       
C        C      0.279666666667     0.921333333333     0.062650000000     0.04       
C        C      0.196500000000     0.987266666667     0.416650000000     0.04       
C        C      0.179333333333     0.978133333333     0.359800000000     0.04       
C        C      0.317000000000     0.963900000000     0.334100000000     0.04       
C        C      0.309666666667     0.926833333333     0.338650000000     0.04       
C        C      0.298166666667     0.922200000000     0.372150000000     0.04       
C        C      0.329000000000     0.937233333333     0.397950000000     0.04       
C        C      0.279666666667     0.912000000000     0.312650000000     0.04       
C        C      0.303500000000     0.820600000000     0.333350000000     0.04       
C        C      0.320666666667     0.811466666667     0.390200000000     0.04       
C        C      0.183000000000     0.797233333333     0.415900000000     0.04       
C        C      0.190333333333     0.760166666667     0.411350000000     0.04       
C        C      0.201833333333     0.755533333333     0.377850000000     0.04       
C        C      0.171000000000     0.770566666667     0.352050000000     0.04       
C        C      0.220333333333     0.745333333333     0.437350000000     0.04       
C        C      0.303500000000     0.679400000000     0.583350000000     0.04       
C        C      0.320666666667     0.688533333333     0.640200000000     0.04       
C        C      0.183000000000     0.702766666667     0.665900000000     0.04       
C        C      0.190333333333     0.739833333333     0.661350000000     0.04       
C        C      0.201833333333     0.744466666667     0.627850000000     0.04       
C        C      0.171000000000     0.729433333333     0.602050000000     0.04       
C        C      0.220333333333     0.754666666667     0.687350000000     0.04       
C        C      0.196500000000     0.846066666667     0.666650000000     0.04       
C        C      0.179333333333     0.855200000000     0.609800000000     0.04       
C        C      0.317000000000     0.869433333333     0.584100000000     0.04       
C        C      0.309666666667     0.906500000000     0.588650000000     0.04       
C        C      0.298166666667     0.911133333333     0.622150000000     0.04       
C        C      0.329000000000     0.896100000000     0.647950000000     0.04       
C        C      0.279666666667     0.921333333333     0.562650000000     0.04       
C        C      0.196500000000     0.987266666667     0.916650000000     0.04       
C        C      0.179333333333     0.978133333333     0.859800000000     0.04       
C        C      0.317000000000     0.963900000000     0.834100000000     0.04       
C        C      0.309666666667     0.926833333333     0.838650000000     0.04       
C        C      0.298166666667     0.922200000000     0.872150000000     0.04       
C        C      0.329000000000     0.937233333333     0.897950000000     0.04       
C        C      0.279666666667     0.912000000000     0.812650000000     0.04       
C        C      0.303500000000     0.820600000000     0.833350000000     0.04       
C        C      0.320666666667     0.811466666667     0.890200000000     0.04       
C        C      0.183000000000     0.797233333333     0.915900000000     0.04       
C        C      0.190333333333     0.760166666667     0.911350000000     0.04       
C        C      0.201833333333     0.755533333333     0.877850000000     0.04       
C        C      0.171000000000     0.770566666667     0.852050000000     0.04       
C        C      0.220333333333     0.745333333333     0.937350000000     0.04       
C        C      0.470166666667     0.012733333333     0.083350000000     0.04       
C        C      0.487333333333     0.021866666667     0.140200000000     0.04       
C        C      0.349666666667     0.036100000000     0.165900000000     0.04       
C        C      0.357000000000     0.073166666667     0.161350000000     0.04       
C        C      0.368500000000     0.077800000000     0.127850000000     0.04       
C        C      0.337666666667     0.062766666667     0.102050000000     0.04       
C        C      0.387000000000     0.088000000000     0.187350000000     0.04       
C        C      0.363166666667     0.179400000000     0.166650000000     0.04       
C        C      0.346000000000     0.188533333333     0.109800000000     0.04       
C        C      0.483666666667     0.202766666667     0.084100000000     0.04       
C        C      0.476333333333     0.239833333333     0.088650000000     0.04       
C        C      0.464833333333     0.244466666667     0.122150000000     0.04       
C        C      0.495666666667     0.229433333333     0.147950000000     0.04       
C        C      0.446333333333     0.254666666667     0.062650000000     0.04       
C        C      0.363166666667     0.320600000000     0.416650000000     0.04       
C        C      0.346000000000     0.311466666667     0.359800000000     0.04       
C        C      0.483666666667     0.297233333333     0.334100000000     0.04       
C        C      0.476333333333     0.260166666667     0.338650000000     0.04       
C        C      0.464833333333     0.255533333333     0.372150000000     0.04       
C        C      0.495666666667     0.270566666667     0.397950000000     0.04       
C        C      0.446333333333     0.245333333333     0.312650000000     0.04       
C        C      0.470166666667     0.153933333333     0.333350000000     0.04       
C        C      0.487333333333     0.144800000000     0.390200000000     0.04       
C        C      0.349666666667     0.130566666667     0.415900000000     0.04       
C        C      0.357000000000     0.093500000000     0.411350000000     0.04       
C        C      0.368500000000     0.088866666667     0.377850000000     0.04       
C        C      0.337666666667     0.103900000000     0.352050000000     0.04       
C        C      0.387000000000     0.078666666667     0.437350000000     0.04       
C        C      0.470166666667     0.012733333333     0.583350000000     0.04       
C        C      0.487333333333     0.021866666667     0.640200000000     0.04       
C        C      0.349666666667     0.036100000000     0.665900000000     0.04       
C        C      0.357000000000     0.073166666667     0.661350000000     0.04       
C        C      0.368500000000     0.077800000000     0.627850000000     0.04       
C        C      0.337666666667     0.062766666667     0.602050000000     0.04       
C        C      0.387000000000     0.088000000000     0.687350000000     0.04       
C        C      0.363166666667     0.179400000000     0.666650000000     0.04       
C        C      0.346000000000     0.188533333333     0.609800000000     0.04       
C        C      0.483666666667     0.202766666667     0.584100000000     0.04       
C        C      0.476333333333     0.239833333333     0.588650000000     0.04       
C        C      0.464833333333     0.244466666667     0.622150000000     0.04       
C        C      0.495666666667     0.229433333333     0.647950000000     0.04       
C        C      0.446333333333     0.254666666667     0.562650000000     0.04       
C        C      0.363166666667     0.320600000000     0.916650000000     0.04       
C        C      0.346000000000     0.311466666667     0.859800000000     0.04       
C        C      0.483666666667     0.297233333333     0.834100000000     0.04       
C        C      0.476333333333     0.260166666667     0.838650000000     0.04       
C        C      0.464833333333     0.255533333333     0.872150000000     0.04       
C        C      0.495666666667     0.270566666667     0.897950000000     0.04       
C        C      0.446333333333     0.245333333333     0.812650000000     0.04       
C        C      0.470166666667     0.153933333333     0.833350000000     0.04       
C        C      0.487333333333     0.144800000000     0.890200000000     0.04       
C        C      0.349666666667     0.130566666667     0.915900000000     0.04       
C        C      0.357000000000     0.093500000000     0.911350000000     0.04       
C        C      0.368500000000     0.088866666667     0.877850000000     0.04       
C        C      0.337666666667     0.103900000000     0.852050000000     0.04       
C        C      0.387000000000     0.078666666667     0.937350000000     0.04       
C        C      0.470166666667     0.346066666667     0.083350000000     0.04       
C        C      0.487333333333     0.355200000000     0.140200000000     0.04       
C        C      0.349666666667     0.369433333333     0.165900000000     0.04       
C        C      0.357000000000     0.406500000000     0.161350000000     0.04       
C        C      0.368500000000     0.411133333333     0.127850000000     0.04       
C        C      0.337666666667     0.396100000000     0.102050000000     0.04       
C        C      0.387000000000     0.421333333333     0.187350000000     0.04       
C        C      0.363166666667     0.512733333333     0.166650000000     0.04       
C        C      0.346000000000     0.521866666667     0.109800000000     0.04       
C        C      0.483666666667     0.536100000000     0.084100000000     0.04       
C        C      0.476333333333     0.573166666667     0.088650000000     0.04       
C        C      0.464833333333     0.577800000000     0.122150000000     0.04       
C        C      0.495666666667     0.562766666667     0.147950000000     0.04       
C        C      0.446333333333     0.588000000000     0.062650000000     0.04       
C        C      0.363166666667     0.653933333333     0.416650000000     0.04       
C        C      0.346000000000     0.644800000000     0.359800000000     0.04       
C        C      0.483666666667     0.630566666667     0.334100000000     0.04       
C        C      0.476333333333     0.593500000000     0.338650000000     0.04       
C        C      0.464833333333     0.588866666667     0.372150000000     0.04       
C        C      0.495666666667     0.603900000000     0.397950000000     0.04       
C        C      0.446333333333     0.578666666667     0.312650000000     0.04       
C        C      0.470166666667     0.487266666667     0.333350000000     0.04       
C        C      0.487333333333     0.478133333333     0.390200000000     0.04       
C        C      0.349666666667     0.463900000000     0.415900000000     0.04       
C        C      0.357000000000     0.426833333333     0.411350000000     0.04       
C        C      0.368500000000     0.422200000000     0.377850000000     0.04       
C        C      0.337666666667     0.437233333333     0.352050000000     0.04       
C        C      0.387000000000     0.412000000000     0.437350000000     0.04       
C        C      0.470166666667     0.346066666667     0.583350000000     0.04       
C        C      0.487333333333     0.355200000000     0.640200000000     0.04       
C        C      0.349666666667     0.369433333333     0.665900000000     0.04       
C        C      0.357000000000     0.406500000000     0.661350000000     0.04       
C        C      0.368500000000     0.411133333333     0.627850000000     0.04       
C        C      0.337666666667     0.396100000000     0.602050000000     0.04       
C        C      0.387000000000     0.421333333333     0.687350000000     0.04       
C        C      0.363166666667     0.512733333333     0.666650000000     0.04       
C        C      0.346000000000     0.521866666667     0.609800000000     0.04       
C        C      0.483666666667     0.536100000000     0.584100000000     0.04       
C        C      0.476333333333     0.573166666667     0.588650000000     0.04       
C        C      0.464833333333     0.577800000000     0.622150000000     0.04       
C        C      0.495666666667     0.562766666667     0.647950000000     0.04       
C        C      0.446333333333     0.588000000000     0.562650000000     0.04       
C        C      0.363166666667     0.653933333333     0.916650000000     0.04       
C        C      0.346000000000     0.644800000000     0.859800000000     0.04       
C        C      0.483666666667     0.630566666667     0.834100000000     0.04       
C        C      0.476333333333     0.593500000000     0.838650000000     0.04       
C        C      0.464833333333     0.588866666667     0.872150000000     0.04       
C        C      0.495666666667     0.603900000000     0.897950000000     0.04       
C        C      0.446333333333     0.578666666667     0.812650000000     0.04       
C        C      0.470166666667     0.487266666667     0.833350000000     0.04       
C        C      0.487333333333     0.478133333333     0.890200000000     0.04       
C        C      0.349666666667     0.463900000000     0.915900000000     0.04       
C        C      0.357000000000     0.426833333333     0.911350000000     0.04       
C        C      0.368500000000     0.422200000000     0.877850000000     0.04       
C        C      0.337666666667     0.437233333333     0.852050000000     0.04       
C        C      0.387000000000     0.412000000000     0.937350000000     0.04       
C        C      0.470166666667     0.679400000000     0.083350000000     0.04       
C        C      0.487333333333     0.688533333333     0.140200000000     0.04       
C        C      0.349666666667     0.702766666667     0.165900000000     0.04       
C        C      0.357000000000     0.739833333333     0.161350000000     0.04       
C        C      0.368500000000     0.744466666667     0.127850000000     0.04       
C        C      0.337666666667     0.729433333333     0.102050000000     0.04       
C        C      0.387000000000     0.754666666667     0.187350000000     0.04       
C        C      0.363166666667     0.846066666667     0.166650000000     0.04       
C        C      0.346000000000     0.855200000000     0.109800000000     0.04       
C        C      0.483666666667     0.869433333333     0.084100000000     0.04       
C        C      0.476333333333     0.906500000000     0.088650000000     0.04       
C        C      0.464833333333     0.911133333333     0.122150000000     0.04       
C        C      0.495666666667     0.896100000000     0.147950000000     0.04       
C        C      0.446333333333     0.921333333333     0.062650000000     0.04       
C        C      0.363166666667     0.987266666667     0.416650000000     0.04       
C        C      0.346000000000     0.978133333333     0.359800000000     0.04       
C        C      0.483666666667     0.963900000000     0.334100000000     0.04       
C        C      0.476333333333     0.926833333333     0.338650000000     0.04       
C        C      0.464833333333     0.922200000000     0.372150000000     0.04       
C        C      0.495666666667     0.937233333333     0.397950000000     0.04       
C        C      0.446333333333     0.912000000000     0.312650000000     0.04       
C        C      0.470166666667     0.820600000000     0.333350000000     0.04       
C        C      0.487333333333     0.811466666667     0.390200000000     0.04       
C        C      0.349666666667     0.797233333333     0.415900000000     0.04       
C        C      0.357000000000     0.760166666667     0.411350000000     0.04       
C        C      0.368500000000     0.755533333333     0.377850000000     0.04       
C        C      0.337666666667     0.770566666667     0.352050000000     0.04       
C        C      0.387000000000     0.745333333333     0.437350000000     0.04       
C        C      0.470166666667     0.679400000000     0.583350000000     0.04       
C        C      0.487333333333     0.688533333333     0.640200000000     0.04       
C        C      0.349666666667     0.702766666667     0.665900000000     0.04       
C        C      0.357000000000     0.739833333333     0.661350000000     0.04       
C        C      0.368500000000     0.744466666667     0.627850000000     0.04       
C        C      0.337666666667     0.729433333333     0.602050000000     0.04       
C        C      0.387000000000     0.754666666667     0.687350000000     0.04       
C        C      0.363166666667     0.846066666667     0.666650000000     0.04       
C        C      0.346000000000     0.855200000000     0.609800000000     0.04       
C        C      0.483666666667     0.869433333333     0.584100000000     0.04       
C        C      0.476333333333     0.906500000000     0.588650000000     0.04       
C        C      0.464833333333     0.911133333333     0.622150000000     0.04       
C        C      0.495666666667     0.896100000000     0.647950000000     0.04       
C        C      0.446333333333     0.921333333333     0.562650000000     0.04       
C        C      0.363166666667     0.987266666667     0.916650000000     0.04       
C        C      0.346000000000     0.978133333333     0.859800000000     0.04       
C        C      0.483666666667     0.963900000000     0.834100000000     0.04       
C        C      0.476333333333     0.926833333333     0.838650000000     0.04       
C        C      0.464833333333     0.922200000000     0.872150000000     0.04       
C        C      0.495666666667     0.937233333333     0.897950000000     0.04       
C        C      0.446333333333     0.912000000000     0.812650000000     0.04       
C        C      0.470166666667     0.820600000000     0.833350000000     0.04       
C        C      0.487333333333     0.811466666667     0.890200000000     0.04       
C        C      0.349666666667     0.797233333333     0.915900000000     0.04       
C        C      0.357000000000     0.760166666667     0.911350000000     0.04       
C        C      0.368500000000     0.755533333333     0.877850000000     0.04       
C        C      0.337666666667     0.770566666667     0.852050000000     0.04       
C        C      0.387000000000     0.745333333333     0.937350000000     0.04       
C        C      0.636833333333     0.012733333333     0.083350000000     0.04       
C        C      0.654000000000     0.021866666667     0.140200000000     0.04       
C        C      0.516333333333     0.036100000000     0.165900000000     0.04       
C        C      0.523666666667     0.073166666667     0.161350000000     0.04       
C        C      0.535166666667     0.077800000000     0.127850000000     0.04       
C        C      0.504333333333     0.062766666667     0.102050000000     0.04       
C        C      0.553666666667     0.088000000000     0.187350000000     0.04       
C        C      0.529833333333     0.179400000000     0.166650000000     0.04       
C        C      0.512666666667     0.188533333333     0.109800000000     0.04       
C        C      0.650333333333     0.202766666667     0.084100000000     0.04       
C        C      0.643000000000     0.239833333333     0.088650000000     0.04       
C        C      0.631500000000     0.244466666667     0.122150000000     0.04       
C        C      0.662333333333     0.229433333333     0.147950000000     0.04       
C        C      0.613000000000     0.254666666667     0.062650000000     0.04       
C        C      0.529833333333     0.320600000000     0.416650000000     0.04       
C        C      0.512666666667     0.311466666667     0.359800000000     0.04       
C        C      0.650333333333     0.297233333333     0.334100000000     0.04       
C        C      0.643000000000     0.260166666667     0.338650000000     0.04       
C        C      0.631500000000     0.255533333333     0.372150000000     0.04       
C        C      0.662333333333     0.270566666667     0.397950000000     0.04       
C        C      0.613000000000     0.245333333333     0.312650000000     0.04       
C        C      0.636833333333     0.153933333333     0.333350000000     0.04       
C        C      0.654000000000     0.144800000000     0.390200000000     0.04       
C        C      0.516333333333     0.130566666667     0.415900000000     0.04       
C        C      0.523666666667     0.093500000000     0.411350000000     0.04       
C        C      0.535166666667     0.088866666667     0.377850000000     0.04       
C        C      0.504333333333     0.103900000000     0.352050000000     0.04       
C        C      0.553666666667     0.078666666667     0.437350000000     0.04       
C        C      0.636833333333     0.012733333333     0.583350000000     0.04       
C        C      0.654000000000     0.021866666667     0.640200000000     0.04       
C        C      0.516333333333     0.036100000000     0.665900000000     0.04       
C        C      0.523666666667     0.073166666667     0.661350000000     0.04       
C        C      0.535166666667     0.077800000000     0.627850000000     0.04       
C        C      0.504333333333     0.062766666667     0.602050000000     0.04       
C        C      0.553666666667     0.088000000000     0.687350000000     0.04       
C        C      0.529833333333     0.179400000000     0.666650000000     0.04       
C        C      0.512666666667     0.188533333333     0.609800000000     0.04       
C        C      0.650333333333     0.202766666667     0.584100000000     0.04       
C        C      0.643000000000     0.239833333333     0.588650000000     0.04       
C        C      0.631500000000     0.244466666667     0.622150000000     0.04       
C        C      0.662333333333     0.229433333333     0.647950000000     0.04       
C        C      0.613000000000     0.254666666667     0.562650000000     0.04       
C        C      0.529833333333     0.320600000000     0.916650000000     0.04       
C        C      0.512666666667     0.311466666667     0.859800000000     0.04       
C        C      0.650333333333     0.297233333333     0.834100000000     0.04       
C        C      0.643000000000     0.260166666667     0.838650000000     0.04       
C        C      0.631500000000     0.255533333333     0.872150000000     0.04       
C        C      0.662333333333     0.270566666667     0.897950000000     0.04       
C        C      0.613000000000     0.245333333333     0.812650000000     0.04       
C        C      0.636833333333     0.153933333333     0.833350000000     0.04       
C        C      0.654000000000     0.144800000000     0.890200000000     0.04       
C        C      0.516333333333     0.130566666667     0.915900000000     0.04       
C        C      0.523666666667     0.093500000000     0.911350000000     0.04       
C        C      0.535166666667     0.088866666667     0.877850000000     0.04       
C        C      0.504333333333     0.103900000000     0.852050000000     0.04       
C        C      0.553666666667     0.078666666667     0.937350000000     0.04       
C        C      0.636833333333     0.346066666667     0.083350000000     0.04       
C        C      0.654000000000     0.355200000000     0.140200000000     0.04       
C        C      0.516333333333     0.369433333333     0.165900000000     0.04       
C        C      0.523666666667     0.406500000000     0.161350000000     0.04       
C        C      0.535166666667     0.411133333333     0.127850000000     0.04       
C        C      0.504333333333     0.396100000000     0.102050000000     0.04       
C        C      0.553666666667     0.421333333333     0.187350000000     0.04       
C        C      0.529833333333     0.512733333333     0.166650000000     0.04       
C        C      0.512666666667     0.521866666667     0.109800000000     0.04       
C        C      0.650333333333     0.536100000000     0.084100000000     0.04       
C        C      0.643000000000     0.573166666667     0.088650000000     0.04       
C        C      0.631500000000     0.577800000000     0.122150000000     0.04       
C        C      0.662333333333     0.562766666667     0.147950000000     0.04       
C        C      0.613000000000     0.588000000000     0.062650000000     0.04       
C        C      0.529833333333     0.653933333333     0.416650000000     0.04       
C        C      0.512666666667     0.644800000000     0.359800000000     0.04       
C        C      0.650333333333     0.630566666667     0.334100000000     0.04       
C        C      0.643000000000     0.593500000000     0.338650000000     0.04       
C        C      0.631500000000     0.588866666667     0.372150000000     0.04       
C        C      0.662333333333     0.603900000000     0.397950000000     0.04       
C        C      0.613000000000     0.578666666667     0.312650000000     0.04       
C        C      0.636833333333     0.487266666667     0.333350000000     0.04       
C        C      0.654000000000     0.478133333333     0.390200000000     0.04       
C        C      0.516333333333     0.463900000000     0.415900000000     0.04       
C        C      0.523666666667     0.426833333333     0.411350000000     0.04       
C        C      0.535166666667     0.422200000000     0.377850000000     0.04       
C        C      0.504333333333     0.437233333333     0.352050000000     0.04       
C        C      0.553666666667     0.412000000000     0.437350000000     0.04       
C        C      0.636833333333     0.346066666667     0.583350000000     0.04       
C        C      0.654000000000     0.355200000000     0.640200000000     0.04       
C        C      0.516333333333     0.369433333333     0.665900000000     0.04       
C        C      0.523666666667     0.406500000000     0.661350000000     0.04       
C        C      0.535166666667     0.411133333333     0.627850000000     0.04       
C        C      0.504333333333     0.396100000000     0.602050000000     0.04       
C        C      0.553666666667     0.421333333333     0.687350000000     0.04       
C        C      0.529833333333     0.512733333333     0.666650000000     0.04       
C        C      0.512666666667     0.521866666667     0.609800000000     0.04       
C        C      0.650333333333     0.536100000000     0.584100000000     0.04       
C        C      0.643000000000     0.573166666667     0.588650000000     0.04       
C        C      0.631500000000     0.577800000000     0.622150000000     0.04       
C        C      0.662333333333     0.562766666667     0.647950000000     0.04       
C        C      0.613000000000     0.588000000000     0.562650000000     0.04       
C        C      0.529833333333     0.653933333333     0.916650000000     0.04       
C        C      0.512666666667     0.644800000000     0.859800000000     0.04       
C        C      0.650333333333     0.630566666667     0.834100000000     0.04       
C        C      0.643000000000     0.593500000000     0.838650000000     0.04       
C        C      0.631500000000     0.588866666667     0.872150000000     0.04       
C        C      0.662333333333     0.603900000000     0.897950000000     0.04       
C        C      0.613000000000     0.578666666667     0.812650000000     0.04       
C        C      0.636833333333     0.487266666667     0.833350000000     0.04       
C        C      0.654000000000     0.478133333333     0.890200000000     0.04       
C        C      0.516333333333     0.463900000000     0.915900000000     0.04       
C        C      0.523666666667     0.426833333333     0.911350000000     0.04       
C        C      0.535166666667     0.422200000000     0.877850000000     0.04       
C        C      0.504333333333     0.437233333333     0.852050000000     0.04       
C        C      0.553666666667     0.412000000000     0.937350000000     0.04       
C        C      0.636833333333     0.679400000000     0.083350000000     0.04       
C        C      0.654000000000     0.688533333333     0.140200000000     0.04       
C        C      0.516333333333     0.702766666667     0.165900000000     0.04       
C        C      0.523666666667     0.739833333333     0.161350000000     0.04       
C        C      0.535166666667     0.744466666667     0.127850000000     0.04       
C        C      0.504333333333     0.729433333333     0.102050000000     0.04       
C        C      0.553666666667     0.754666666667     0.187350000000     0.04       
C        C      0.529833333333     0.846066666667     0.166650000000     0.04       
C        C      0.512666666667     0.855200000000     0.109800000000     0.04       
C        C      0.650333333333     0.869433333333     0.084100000000     0.04       
C        C      0.643000000000     0.906500000000     0.088650000000     0.04       
C        C      0.631500000000     0.911133333333     0.122150000000     0.04       
C        C      0.662333333333     0.896100000000     0.147950000000     0.04       
C        C      0.613000000000     0.921333333333     0.062650000000     0.04       
C        C      0.529833333333     0.987266666667     0.416650000000     0.04       
C        C      0.512666666667     0.978133333333     0.359800000000     0.04       
C        C      0.650333333333     0.963900000000     0.334100000000     0.04       
C        C      0.643000000000     0.926833333333     0.338650000000     0.04       
C        C      0.631500000000     0.922200000000     0.372150000000     0.04       
C        C      0.662333333333     0.937233333333     0.397950000000     0.04       
C        C      0.613000000000     0.912000000000     0.312650000000     0.04       
C        C      0.636833333333     0.820600000000     0.333350000000     0.04       
C        C      0.654000000000     0.811466666667     0.390200000000     0.04       
C        C      0.516333333333     0.797233333333     0.415900000000     0.04       
C        C      0.523666666667     0.760166666667     0.411350000000     0.04       
C        C      0.535166666667     0.755533333333     0.377850000000     0.04       
C        C      0.504333333333     0.770566666667     0.352050000000     0.04       
C        C      0.553666666667     0.745333333333     0.437350000000     0.04       
C        C      0.636833333333     0.679400000000     0.583350000000     0.04       
C        C      0.654000000000     0.688533333333     0.640200000000     0.04       
C        C      0.516333333333     0.702766666667     0.665900000000     0.04       
C        C      0.523666666667     0.739833333333     0.661350000000     0.04       
C        C      0.535166666667     0.744466666667     0.627850000000     0.04       
C        C      0.504333333333     0.729433333333     0.602050000000     0.04       
C        C      0.553666666667     0.754666666667     0.687350000000     0.04       
C        C      0.529833333333     0.846066666667     0.666650000000     0.04       
C        C      0.512666666667     0.855200000000     0.609800000000     0.04       
C        C      0.650333333333     0.869433333333     0.584100000000     0.04       
C        C      0.643000000000     0.906500000000     0.588650000000     0.04       
C        C      0.631500000000     0.911133333333     0.622150000000     0.04       
C        C      0.662333333333     0.896100000000     0.647950000000     0.04       
C        C      0.613000000000     0.921333333333     0.562650000000     0.04       
C        C      0.529833333333     0.987266666667     0.916650000000     0.04       
C        C      0.512666666667     0.978133333333     0.859800000000     0.04       
C        C      0.650333333333     0.963900000000     0.834100000000     0.04       
C        C      0.643000000000     0.926833333333     0.838650000000     0.04       
C        C      0.631500000000     0.922200000000     0.872150000000     0.04       
C        C      0.662333333333     0.937233333333     0.897950000000     0.04       
C        C      0.613000000000     0.912000000000     0.812650000000     0.04       
C        C      0.636833333333     0.820600000000     0.833350000000     0.04       
C        C      0.654000000000     0.811466666667     0.890200000000     0.04       
C        C      0.516333333333     0.797233333333     0.915900000000     0.04       
C        C      0.523666666667     0.760166666667     0.911350000000     0.04       
C        C      0.535166666667     0.755533333333     0.877850000000     0.04       
C        C      0.504333333333     0.770566666667     0.852050000000     0.04       
C        C      0.553666666667     0.745333333333     0.937350000000     0.04       
C        C      0.803500000000     0.012733333333     0.083350000000     0.04       
C        C      0.820666666667     0.021866666667     0.140200000000     0.04       
C        C      0.683000000000     0.036100000000     0.165900000000     0.04       
C        C      0.690333333333     0.073166666667     0.161350000000     0.04       
C        C      0.701833333333     0.077800000000     0.127850000000     0.04       
C        C      0.671000000000     0.062766666667     0.102050000000     0.04       
C        C      0.720333333333     0.088000000000     0.187350000000     0.04       
C        C      0.696500000000     0.179400000000     0.166650000000     0.04       
C        C      0.679333333333     0.188533333333     0.109800000000     0.04       
C        C      0.817000000000     0.202766666667     0.084100000000     0.04       
C        C      0.809666666667     0.239833333333     0.088650000000     0.04       
C        C      0.798166666667     0.244466666667     0.122150000000     0.04       
C        C      0.829000000000     0.229433333333     0.147950000000     0.04       
C        C      0.779666666667     0.254666666667     0.062650000000     0.04       
C        C      0.696500000000     0.320600000000     0.416650000000     0.04       
C        C      0.679333333333     0.311466666667     0.359800000000     0.04       
C        C      0.817000000000     0.297233333333     0.334100000000     0.04       
C        C      0.809666666667     0.260166666667     0.338650000000     0.04       
C        C      0.798166666667     0.255533333333     0.372150000000     0.04       
C        C      0.829000000000     0.270566666667     0.397950000000     0.04       
C        C      0.779666666667     0.245333333333     0.312650000000     0.04       
C        C      0.803500000000     0.153933333333     0.333350000000     0.04       
C        C      0.820666666667     0.144800000000     0.390200000000     0.04       
C        C      0.683000000000     0.130566666667     0.415900000000     0.04       
C        C      0.690333333333     0.093500000000     0.411350000000     0.04       
C        C      0.701833333333     0.088866666667     0.377850000000     0.04       
C        C      0.671000000000     0.103900000000     0.352050000000     0.04       
C        C      0.720333333333     0.078666666667     0.437350000000     0.04       
C        C      0.803500000000     0.012733333333     0.583350000000     0.04       
C        C      0.820666666667     0.021866666667     0.640200000000     0.04       
C        C      0.683000000000     0.036100000000     0.665900000000     0.04       
C        C      0.690333333333     0.073166666667     0.661350000000     0.04       
C        C      0.701833333333     0.077800000000     0.627850000000     0.04       
C        C      0.671000000000     0.062766666667     0.602050000000     0.04       
C        C      0.720333333333     0.088000000000     0.687350000000     0.04       
C        C      0.696500000000     0.179400000000     0.666650000000     0.04       
C        C      0.679333333333     0.188533333333     0.609800000000     0.04       
C        C      0.817000000000     0.202766666667     0.584100000000     0.04       
C        C      0.809666666667     0.239833333333     0.588650000000     0.04       
C        C      0.798166666667     0.244466666667     0.622150000000     0.04       
C        C      0.829000000000     0.229433333333     0.647950000000     0.04       
C        C      0.779666666667     0.254666666667     0.562650000000     0.04       
C        C      0.696500000000     0.320600000000     0.916650000000     0.04       
C        C      0.679333333333     0.311466666667     0.859800000000     0.04       
C        C      0.817000000000     0.297233333333     0.834100000000     0.04       
C        C      0.809666666667     0.260166666667     0.838650000000     0.04       
C        C      0.798166666667     0.255533333333     0.872150000000     0.04       
C        C      0.829000000000     0.270566666667     0.897950000000     0.04       
C        C      0.779666666667     0.245333333333     0.812650000000     0.04       
C        C      0.803500000000     0.153933333333     0.833350000000     0.04       
C        C      0.820666666667     0.144800000000     0.890200000000     0.04       
C        C      0.683000000000     0.130566666667     0.915900000000     0.04       
C        C      0.690333333333     0.093500000000     0.911350000000     0.04       
C        C      0.701833333333     0.088866666667     0.877850000000     0.04       
C        C      0.671000000000     0.103900000000     0.852050000000     0.04       
C        C      0.720333333333     0.078666666667     0.937350000000     0.04       
C        C      0.803500000000     0.346066666667     0.083350000000     0.04       
C        C      0.820666666667     0.355200000000     0.140200000000     0.04       
C        C      0.683000000000     0.369433333333     0.165900000000     0.04       
C        C      0.690333333333     0.406500000000     0.161350000000     0.04       
C        C      0.701833333333     0.411133333333     0.127850000000     0.04       
C        C      0.671000000000     0.396100000000     0.102050000000     0.04       
C        C      0.720333333333     0.421333333333     0.187350000000     0.04       
C        C      0.696500000000     0.512733333333     0.166650000000     0.04       
C        C      0.679333333333     0.521866666667     0.109800000000     0.04       
C        C      0.817000000000     0.536100000000     0.084100000000     0.04       
C        C      0.809666666667     0.573166666667     0.088650000000     0.04       
C        C      0.798166666667     0.577800000000     0.122150000000     0.04       
C        C      0.829000000000     0.562766666667     0.147950000000     0.04       
C        C      0.779666666667     0.588000000000     0.062650000000     0.04       
C        C      0.696500000000     0.653933333333     0.416650000000     0.04       
C        C      0.679333333333     0.644800000000     0.359800000000     0.04       
C        C      0.817000000000     0.630566666667     0.334100000000     0.04       
C        C      0.809666666667     0.593500000000     0.338650000000     0.04       
C        C      0.798166666667     0.588866666667     0.372150000000     0.04       
C        C      0.829000000000     0.603900000000     0.397950000000     0.04       
C        C      0.779666666667     0.578666666667     0.312650000000     0.04       
C        C      0.803500000000     0.487266666667     0.333350000000     0.04       
C        C      0.820666666667     0.478133333333     0.390200000000     0.04       
C        C      0.683000000000     0.463900000000     0.415900000000     0.04       
C        C      0.690333333333     0.426833333333     0.411350000000     0.04       
C        C      0.701833333333     0.422200000000     0.377850000000     0.04       
C        C      0.671000000000     0.437233333333     0.352050000000     0.04       
C        C      0.720333333333     0.412000000000     0.437350000000     0.04       
C        C      0.803500000000     0.346066666667     0.583350000000     0.04       
C        C      0.820666666667     0.355200000000     0.640200000000     0.04       
C        C      0.683000000000     0.369433333333     0.665900000000     0.04       
C        C      0.690333333333     0.406500000000     0.661350000000     0.04       
C        C      0.701833333333     0.411133333333     0.627850000000     0.04       
C        C      0.671000000000     0.396100000000     0.602050000000     0.04       
C        C      0.720333333333     0.421333333333     0.687350000000     0.04       
C        C      0.696500000000     0.512733333333     0.666650000000     0.04       
C        C      0.679333333333     0.521866666667     0.609800000000     0.04       
C        C      0.817000000000     0.536100000000     0.584100000000     0.04       
C        C      0.809666666667     0.573166666667     0.588650000000     0.04       
C        C      0.798166666667     0.577800000000     0.622150000000     0.04       
C        C      0.829000000000     0.562766666667     0.647950000000     0.04       
C        C      0.779666666667     0.588000000000     0.562650000000     0.04       
C        C      0.696500000000     0.653933333333     0.916650000000     0.04       
C        C      0.679333333333     0.644800000000     0.859800000000     0.04       
C        C      0.817000000000     0.630566666667     0.834100000000     0.04       
C        C      0.809666666667     0.593500000000     0.838650000000     0.04       
C        C      0.798166666667     0.588866666667     0.872150000000     0.04       
C        C      0.829000000000     0.603900000000     0.897950000000     0.04       
C        C      0.779666666667     0.578666666667     0.812650000000     0.04       
C        C      0.803500000000     0.487266666667     0.833350000000     0.04       
C        C      0.820666666667     0.478133333333     0.890200000000     0.04       
C        C      0.683000000000     0.463900000000     0.915900000000     0.04       
C        C      0.690333333333     0.426833333333     0.911350000000     0.04       
C        C      0.701833333333     0.422200000000     0.877850000000     0.04       
C        C      0.671000000000     0.437233333333     0.852050000000     0.04       
C        C      0.720333333333     0.412000000000     0.937350000000     0.04       
C        C      0.803500000000     0.679400000000     0.083350000000     0.04       
C        C      0.820666666667     0.688533333333     0.140200000000     0.04       
C        C      0.683000000000     0.702766666667     0.165900000000     0.04       
C        C      0.690333333333     0.739833333333     0.161350000000     0.04       
C        C      0.701833333333     0.744466666667     0.127850000000     0.04       
C        C      0.671000000000     0.729433333333     0.102050000000     0.04       
C        C      0.720333333333     0.754666666667     0.187350000000     0.04       
C        C      0.696500000000     0.846066666667     0.166650000000     0.04       
C        C      0.679333333333     0.855200000000     0.109800000000     0.04       
C        C      0.817000000000     0.869433333333     0.084100000000     0.04       
C        C      0.809666666667     0.906500000000     0.088650000000     0.04       
C        C      0.798166666667     0.911133333333     0.122150000000     0.04       
C        C      0.829000000000     0.896100000000     0.147950000000     0.04       
C        C      0.779666666667     0.921333333333     0.062650000000     0.04       
C        C      0.696500000000     0.987266666667     0.416650000000     0.04       
C        C      0.679333333333     0.978133333333     0.359800000000     0.04       
C        C      0.817000000000     0.963900000000     0.334100000000     0.04       
C        C      0.809666666667     0.926833333333     0.338650000000     0.04       
C        C      0.798166666667     0.922200000000     0.372150000000     0.04       
C        C      0.829000000000     0.937233333333     0.397950000000     0.04       
C        C      0.779666666667     0.912000000000     0.312650000000     0.04       
C        C      0.803500000000     0.820600000000     0.333350000000     0.04       
C        C      0.820666666667     0.811466666667     0.390200000000     0.04       
C        C      0.683000000000     0.797233333333     0.415900000000     0.04       
C        C      0.690333333333     0.760166666667     0.411350000000     0.04       
C        C      0.701833333333     0.755533333333     0.377850000000     0.04       
C        C      0.671000000000     0.770566666667     0.352050000000     0.04       
C        C      0.720333333333     0.745333333333     0.437350000000     0.04       
C        C      0.803500000000     0.679400000000     0.583350000000     0.04       
C        C      0.820666666667     0.688533333333     0.640200000000     0.04       
C        C      0.683000000000     0.702766666667     0.665900000000     0.04       
C        C      0.690333333333     0.739833333333     0.661350000000     0.04       
C        C      0.701833333333     0.744466666667     0.627850000000     0.04       
C        C      0.671000000000     0.729433333333     0.602050000000     0.04       
C        C      0.720333333333     0.754666666667     0.687350000000     0.04       
C        C      0.696500000000     0.846066666667     0.666650000000     0.04       
C        C      0.679333333333     0.855200000000     0.609800000000     0.04       
C        C      0.817000000000     0.869433333333     0.584100000000     0.04       
C        C      0.809666666667     0.906500000000     0.588650000000     0.04       
C        C      0.798166666667     0.911133333333     0.622150000000     0.04       
C        C      0.829000000000     0.896100000000     0.647950000000     0.04       
C        C      0.779666666667     0.921333333333     0.562650000000     0.04       
C        C      0.696500000000     0.987266666667     0.916650000000     0.04       
C        C      0.679333333333     0.978133333333     0.859800000000     0.04       
C        C      0.817000000000     0.963900000000     0.834100000000     0.04       
C        C      0.809666666667     0.926833333333     0.838650000000     0.04       
C        C      0.798166666667     0.922200000000     0.872150000000     0.04       
C        C      0.829000000000     0.937233333333     0.897950000000     0.04       
C        C      0.779666666667     0.912000000000     0.812650000000     0.04       
C        C      0.803500000000     0.820600000000     0.833350000000     0.04       
C        C      0.820666666667     0.811466666667     0.890200000000     0.04       
C        C      0.683000000000     0.797233333333     0.915900000000     0.04       
C        C      0.690333333333     0.760166666667     0.911350000000     0.04       
C        C      0.701833333333     0.755533333333     0.877850000000     0.04       
C        C      0.671000000000     0.770566666667     0.852050000000     0.04       
C        C      0.720333333333     0.745333333333     0.937350000000     0.04       
C        C      0.970166666667     0.012733333333     0.083350000000     0.04       
C        C      0.987333333333     0.021866666667     0.140200000000     0.04       
C        C      0.849666666667     0.036100000000     0.165900000000     0.04       
C        C      0.857000000000     0.073166666667     0.161350000000     0.04       
C        C      0.868500000000     0.077800000000     0.127850000000     0.04       
C        C      0.837666666667     0.062766666667     0.102050000000     0.04       
C        C      0.887000000000     0.088000000000     0.187350000000     0.04       
C        C      0.863166666667     0.179400000000     0.166650000000     0.04       
C        C      0.846000000000     0.188533333333     0.109800000000     0.04       
C        C      0.983666666667     0.202766666667     0.084100000000     0.04       
C        C      0.976333333333     0.239833333333     0.088650000000     0.04       
C        C      0.964833333333     0.244466666667     0.122150000000     0.04       
C        C      0.995666666667     0.229433333333     0.147950000000     0.04       
C        C      0.946333333333     0.254666666667     0.062650000000     0.04       
C        C      0.863166666667     0.320600000000     0.416650000000     0.04       
C        C      0.846000000000     0.311466666667     0.359800000000     0.04       
C        C      0.983666666667     0.297233333333     0.334100000000     0.04       
C        C      0.976333333333     0.260166666667     0.338650000000     0.04       
C        C      0.964833333333     0.255533333333     0.372150000000     0.04       
C        C      0.995666666667     0.270566666667     0.397950000000     0.04       
C        C      0.946333333333     0.245333333333     0.312650000000     0.04       
C        C      0.970166666667     0.153933333333     0.333350000000     0.04       
C        C      0.987333333333     0.144800000000     0.390200000000     0.04       
C        C      0.849666666667     0.130566666667     0.415900000000     0.04       
C        C      0.857000000000     0.093500000000     0.411350000000     0.04       
C        C      0.868500000000     0.088866666667     0.377850000000     0.04       
C        C      0.837666666667     0.103900000000     0.352050000000     0.04       
C        C      0.887000000000     0.078666666667     0.437350000000     0.04       
C        C      0.970166666667     0.012733333333     0.583350000000     0.04       
C        C      0.987333333333     0.021866666667     0.640200000000     0.04       
C        C      0.849666666667     0.036100000000     0.665900000000     0.04       
C        C      0.857000000000     0.073166666667     0.661350000000     0.04       
C        C      0.868500000000     0.077800000000     0.627850000000     0.04       
C        C      0.837666666667     0.062766666667     0.602050000000     0.04       
C        C      0.887000000000     0.088000000000     0.687350000000     0.04       
C        C      0.863166666667     0.179400000000     0.666650000000     0.04       
C        C      0.846000000000     0.188533333333     0.609800000000     0.04       
C        C      0.983666666667     0.202766666667     0.584100000000     0.04       
C        C      0.976333333333     0.239833333333     0.588650000000     0.04       
C        C      0.964833333333     0.244466666667     0.622150000000     0.04       
C        C      0.995666666667     0.229433333333     0.647950000000     0.04       
C        C      0.946333333333     0.254666666667     0.562650000000     0.04       
C        C      0.863166666667     0.320600000000     0.916650000000     0.04       
C        C      0.846000000000     0.311466666667     0.859800000000     0.04       
C        C      0.983666666667     0.297233333333     0.834100000000     0.04       
C        C      0.976333333333     0.260166666667     0.838650000000     0.04       
C        C      0.964833333333     0.255533333333     0.872150000000     0.04       
C        C      0.995666666667     0.270566666667     0.897950000000     0.04       
C        C      0.946333333333     0.245333333333     0.812650000000     0.04       
C        C      0.970166666667     0.153933333333     0.833350000000     0.04       
C        C      0.987333333333     0.144800000000     0.890200000000     0.04       
C        C      0.849666666667     0.130566666667     0.915900000000     0.04       
C        C      0.857000000000     0.093500000000     0.911350000000     0.04       
C        C      0.868500000000     0.088866666667     0.877850000000     0.04       
C        C      0.837666666667     0.103900000000     0.852050000000     0.04       
C        C      0.887000000000     0.078666666667     0.937350000000     0.04       
C        C      0.970166666667     0.346066666667     0.083350000000     0.04       
C        C      0.987333333333     0.355200000000     0.140200000000     0.04       
C        C      0.849666666667     0.369433333333     0.165900000000     0.04       
C        C      0.857000000000     0.406500000000     0.161350000000     0.04       
C        C      0.868500000000     0.411133333333     0.127850000000     0.04       
C        C      0.837666666667     0.396100000000     0.102050000000     0.04       
C        C      0.887000000000     0.421333333333     0.187350000000     0.04       
C        C      0.863166666667     0.512733333333     0.166650000000     0.04       
C        C      0.846000000000     0.521866666667     0.109800000000     0.04       
C        C      0.983666666667     0.536100000000     0.084100000000     0.04       
C        C      0.976333333333     0.573166666667     0.088650000000     0.04       
C        C      0.964833333333     0.577800000000     0.122150000000     0.04       
C        C      0.995666666667     0.562766666667     0.147950000000     0.04       
C        C      0.946333333333     0.588000000000     0.062650000000     0.04       
C        C      0.863166666667     0.653933333333     0.416650000000     0.04       
C        C      0.846000000000     0.644800000000     0.359800000000     0.04       
C        C      0.983666666667     0.630566666667     0.334100000000     0.04       
C        C      0.976333333333     0.593500000000     0.338650000000     0.04       
C        C      0.964833333333     0.588866666667     0.372150000000     0.04       
C        C      0.995666666667     0.603900000000     0.397950000000     0.04       
C        C      0.946333333333     0.578666666667     0.312650000000     0.04       
C        C      0.970166666667     0.487266666667     0.333350000000     0.04       
C        C      0.987333333333     0.478133333333     0.390200000000     0.04       
C        C      0.849666666667     0.463900000000     0.415900000000     0.04       
C        C      0.857000000000     0.426833333333     0.411350000000     0.04       
C        C      0.868500000000     0.422200000000     0.377850000000     0.04       
C        C      0.837666666667     0.437233333333     0.352050000000     0.04       
C        C      0.887000000000     0.412000000000     0.437350000000     0.04       
C        C      0.970166666667     0.346066666667     0.583350000000     0.04       
C        C      0.987333333333     0.355200000000     0.640200000000     0.04       
C        C      0.849666666667     0.369433333333     0.665900000000     0.04       
C        C      0.857000000000     0.406500000000     0.661350000000     0.04       
C        C      0.868500000000     0.411133333333     0.627850000000     0.04       
C        C      0.837666666667     0.396100000000     0.602050000000     0.04       
C        C      0.887000000000     0.421333333333     0.687350000000     0.04       
C        C      0.863166666667     0.512733333333     0.666650000000     0.04       
C        C      0.846000000000     0.521866666667     0.609800000000     0.04       
C        C      0.983666666667     0.536100000000     0.584100000000     0.04       
C        C      0.976333333333     0.573166666667     0.588650000000     0.04       
C        C      0.964833333333     0.577800000000     0.622150000000     0.04       
C        C      0.995666666667     0.562766666667     0.647950000000     0.04       
C        C      0.946333333333     0.588000000000     0.562650000000     0.04       
C        C      0.863166666667     0.653933333333     0.916650000000     0.04       
C        C      0.846000000000     0.644800000000     0.859800000000     0.04       
C        C      0.983666666667     0.630566666667     0.834100000000     0.04       
C        C      0.976333333333     0.593500000000     0.838650000000     0.04       
C        C      0.964833333333     0.588866666667     0.872150000000     0.04       
C        C      0.995666666667     0.603900000000     0.897950000000     0.04       
C        C      0.946333333333     0.578666666667     0.812650000000     0.04       
C        C      0.970166666667     0.487266666667     0.833350000000     0.04       
C        C      0.987333333333     0.478133333333     0.890200000000     0.04       
C        C      0.849666666667     0.463900000000     0.915900000000     0.04       
C        C      0.857000000000     0.426833333333     0.911350000000     0.04       
C        C      0.868500000000     0.422200000000     0.877850000000     0.04       
C        C      0.837666666667     0.437233333333     0.852050000000     0.04       
C        C      0.887000000000     0.412000000000     0.937350000000     0.04       
C        C      0.970166666667     0.679400000000     0.083350000000     0.04       
C        C      0.987333333333     0.688533333333     0.140200000000     0.04       
C        C      0.849666666667     0.702766666667     0.165900000000     0.04       
C        C      0.857000000000     0.739833333333     0.161350000000     0.04       
C        C      0.868500000000     0.744466666667     0.127850000000     0.04       
C        C      0.837666666667     0.729433333333     0.102050000000     0.04       
C        C      0.887000000000     0.754666666667     0.187350000000     0.04       
C        C      0.863166666667     0.846066666667     0.166650000000     0.04       
C        C      0.846000000000     0.855200000000     0.109800000000     0.04       
C        C      0.983666666667     0.869433333333     0.084100000000     0.04       
C        C      0.976333333333     0.906500000000     0.088650000000     0.04       
C        C      0.964833333333     0.911133333333     0.122150000000     0.04       
C        C      0.995666666667     0.896100000000     0.147950000000     0.04       
C        C      0.946333333333     0.921333333333     0.062650000000     0.04       
C        C      0.863166666667     0.987266666667     0.416650000000     0.04       
C        C      0.846000000000     0.978133333333     0.359800000000     0.04       
C        C      0.983666666667     0.963900000000     0.334100000000     0.04       
C        C      0.976333333333     0.926833333333     0.338650000000     0.04       
C        C      0.964833333333     0.922200000000     0.372150000000     0.04       
C        C      0.995666666667     0.937233333333     0.397950000000     0.04       
C        C      0.946333333333     0.912000000000     0.312650000000     0.04       
C        C      0.970166666667     0.820600000000     0.333350000000     0.04       
C        C      0.987333333333     0.811466666667     0.390200000000     0.04       
C        C      0.849666666667     0.797233333333     0.415900000000     0.04       
C        C      0.857000000000     0.760166666667     0.411350000000     0.04       
C        C      0.868500000000     0.755533333333     0.377850000000     0.04       
C        C      0.837666666667     0.770566666667     0.352050000000     0.04       
C        C      0.887000000000     0.745333333333     0.437350000000     0.04       
C        C      0.970166666667     0.679400000000     0.583350000000     0.04       
C        C      0.987333333333     0.688533333333     0.640200000000     0.04       
C        C      0.849666666667     0.702766666667     0.665900000000     0.04       
C        C      0.857000000000     0.739833333333     0.661350000000     0.04       
C        C      0.868500000000     0.744466666667     0.627850000000     0.04       
C        C      0.837666666667     0.729433333333     0.602050000000     0.04       
C        C      0.887000000000     0.754666666667     0.687350000000     0.04       
C        C      0.863166666667     0.846066666667     0.666650000000     0.04       
C        C      0.846000000000     0.855200000000     0.609800000000     0.04       
C        C      0.983666666667     0.869433333333     0.584100000000     0.04       
C        C      0.976333333333     0.906500000000     0.588650000000     0.04       
C        C      0.964833333333     0.911133333333     0.622150000000     0.04       
C        C      0.995666666667     0.896100000000     0.647950000000     0.04       
C        C      0.946333333333     0.921333333333     0.562650000000     0.04       
C        C      0.863166666667     0.987266666667     0.916650000000     0.04       
C        C      0.846000000000     0.978133333333     0.859800000000     0.04       
C        C      0.983666666667     0.963900000000     0.834100000000     0.04       
C        C      0.976333333333     0.926833333333     0.838650000000     0.04       
C        C      0.964833333333     0.922200000000     0.872150000000     0.04       
C        C      0.995666666667     0.937233333333     0.897950000000     0.04       
C        C      0.946333333333     0.912000000000     0.812650000000     0.04       
C        C      0.970166666667     0.820600000000     0.833350000000     0.04       
C        C      0.987333333333     0.811466666667     0.890200000000     0.04       
C        C      0.849666666667     0.797233333333     0.915900000000     0.04       
C        C      0.857000000000     0.760166666667     0.911350000000     0.04       
C        C      0.868500000000     0.755533333333     0.877850000000     0.04       
C        C      0.837666666667     0.770566666667     0.852050000000     0.04       
C        C      0.887000000000     0.745333333333     0.937350000000     0.04       
Gd       Gd     0.104373333333     0.043883333333     0.486155000000     0.051      
Gd       Gd     0.062293333333     0.210550000000     0.263845000000     0.051      
Gd       Gd     0.062293333333     0.289450000000     0.013845000000     0.051      
Gd       Gd     0.104373333333     0.122783333333     0.236155000000     0.051      
Gd       Gd     0.104373333333     0.043883333333     0.986155000000     0.051      
Gd       Gd     0.062293333333     0.210550000000     0.763845000000     0.051      
Gd       Gd     0.062293333333     0.289450000000     0.513845000000     0.051      
Gd       Gd     0.104373333333     0.122783333333     0.736155000000     0.051      
Gd       Gd     0.104373333333     0.377216666667     0.486155000000     0.051      
Gd       Gd     0.062293333333     0.543883333333     0.263845000000     0.051      
Gd       Gd     0.062293333333     0.622783333333     0.013845000000     0.051      
Gd       Gd     0.104373333333     0.456116666667     0.236155000000     0.051      
Gd       Gd     0.104373333333     0.377216666667     0.986155000000     0.051      
Gd       Gd     0.062293333333     0.543883333333     0.763845000000     0.051      
Gd       Gd     0.062293333333     0.622783333333     0.513845000000     0.051      
Gd       Gd     0.104373333333     0.456116666667     0.736155000000     0.051      
Gd       Gd     0.104373333333     0.710550000000     0.486155000000     0.051      
Gd       Gd     0.062293333333     0.877216666667     0.263845000000     0.051      
Gd       Gd     0.062293333333     0.956116666667     0.013845000000     0.051      
Gd       Gd     0.104373333333     0.789450000000     0.236155000000     0.051      
Gd       Gd     0.104373333333     0.710550000000     0.986155000000     0.051      
Gd       Gd     0.062293333333     0.877216666667     0.763845000000     0.051      
Gd       Gd     0.062293333333     0.956116666667     0.513845000000     0.051      
Gd       Gd     0.104373333333     0.789450000000     0.736155000000     0.051      
Gd       Gd     0.271040000000     0.043883333333     0.486155000000     0.051      
Gd       Gd     0.228960000000     0.210550000000     0.263845000000     0.051      
Gd       Gd     0.228960000000     0.289450000000     0.013845000000     0.051      
Gd       Gd     0.271040000000     0.122783333333     0.236155000000     0.051      
Gd       Gd     0.271040000000     0.043883333333     0.986155000000     0.051      
Gd       Gd     0.228960000000     0.210550000000     0.763845000000     0.051      
Gd       Gd     0.228960000000     0.289450000000     0.513845000000     0.051      
Gd       Gd     0.271040000000     0.122783333333     0.736155000000     0.051      
Gd       Gd     0.271040000000     0.377216666667     0.486155000000     0.051      
Gd       Gd     0.228960000000     0.543883333333     0.263845000000     0.051      
Gd       Gd     0.228960000000     0.622783333333     0.013845000000     0.051      
Gd       Gd     0.271040000000     0.456116666667     0.236155000000     0.051      
Gd       Gd     0.271040000000     0.377216666667     0.986155000000     0.051      
Gd       Gd     0.228960000000     0.543883333333     0.763845000000     0.051      
Gd       Gd     0.228960000000     0.622783333333     0.513845000000     0.051      
Gd       Gd     0.271040000000     0.456116666667     0.736155000000     0.051      
Gd       Gd     0.271040000000     0.710550000000     0.486155000000     0.051      
Gd       Gd     0.228960000000     0.877216666667     0.263845000000     0.051      
Gd       Gd     0.228960000000     0.956116666667     0.013845000000     0.051      
Gd       Gd     0.271040000000     0.789450000000     0.236155000000     0.051      
Gd       Gd     0.271040000000     0.710550000000     0.986155000000     0.051      
Gd       Gd     0.228960000000     0.877216666667     0.763845000000     0.051      
Gd       Gd     0.228960000000     0.956116666667     0.513845000000     0.051      
Gd       Gd     0.271040000000     0.789450000000     0.736155000000     0.051      
Gd       Gd     0.437706666667     0.043883333333     0.486155000000     0.051      
Gd       Gd     0.395626666667     0.210550000000     0.263845000000     0.051      
Gd       Gd     0.395626666667     0.289450000000     0.013845000000     0.051      
Gd       Gd     0.437706666667     0.122783333333     0.236155000000     0.051      
Gd       Gd     0.437706666667     0.043883333333     0.986155000000     0.051      
Gd       Gd     0.395626666667     0.210550000000     0.763845000000     0.051      
Gd       Gd     0.395626666667     0.289450000000     0.513845000000     0.051      
Gd       Gd     0.437706666667     0.122783333333     0.736155000000     0.051      
Gd       Gd     0.437706666667     0.377216666667     0.486155000000     0.051      
Gd       Gd     0.395626666667     0.543883333333     0.263845000000     0.051      
Gd       Gd     0.395626666667     0.622783333333     0.013845000000     0.051      
Gd       Gd     0.437706666667     0.456116666667     0.236155000000     0.051      
Gd       Gd     0.437706666667     0.377216666667     0.986155000000     0.051      
Gd       Gd     0.395626666667     0.543883333333     0.763845000000     0.051      
Gd       Gd     0.395626666667     0.622783333333     0.513845000000     0.051      
Gd       Gd     0.437706666667     0.456116666667     0.736155000000     0.051      
Gd       Gd     0.437706666667     0.710550000000     0.486155000000     0.051      
Gd       Gd     0.395626666667     0.877216666667     0.263845000000     0.051      
Gd       Gd     0.395626666667     0.956116666667     0.013845000000     0.051      
Gd       Gd     0.437706666667     0.789450000000     0.236155000000     0.051      
Gd       Gd     0.437706666667     0.710550000000     0.986155000000     0.051      
Gd       Gd     0.395626666667     0.877216666667     0.763845000000     0.051      
Gd       Gd     0.395626666667     0.956116666667     0.513845000000     0.051      
Gd       Gd     0.437706666667     0.789450000000     0.736155000000     0.051      
Gd       Gd     0.604373333333     0.043883333333     0.486155000000     0.051      
Gd       Gd     0.562293333333     0.210550000000     0.263845000000     0.051      
Gd       Gd     0.562293333333     0.289450000000     0.013845000000     0.051      
Gd       Gd     0.604373333333     0.122783333333     0.236155000000     0.051      
Gd       Gd     0.604373333333     0.043883333333     0.986155000000     0.051      
Gd       Gd     0.562293333333     0.210550000000     0.763845000000     0.051      
Gd       Gd     0.562293333333     0.289450000000     0.513845000000     0.051      
Gd       Gd     0.604373333333     0.122783333333     0.736155000000     0.051      
Gd       Gd     0.604373333333     0.377216666667     0.486155000000     0.051      
Gd       Gd     0.562293333333     0.543883333333     0.263845000000     0.051      
Gd       Gd     0.562293333333     0.622783333333     0.013845000000     0.051      
Gd       Gd     0.604373333333     0.456116666667     0.236155000000     0.051      
Gd       Gd     0.604373333333     0.377216666667     0.986155000000     0.051      
Gd       Gd     0.562293333333     0.543883333333     0.763845000000     0.051      
Gd       Gd     0.562293333333     0.622783333333     0.513845000000     0.051      
Gd       Gd     0.604373333333     0.456116666667     0.736155000000     0.051      
Gd       Gd     0.604373333333     0.710550000000     0.486155000000     0.051      
Gd       Gd     0.562293333333     0.877216666667     0.263845000000     0.051      
Gd       Gd     0.562293333333     0.956116666667     0.013845000000     0.051      
Gd       Gd     0.604373333333     0.789450000000     0.236155000000     0.051      
Gd       Gd     0.604373333333     0.710550000000     0.986155000000     0.051      
Gd       Gd     0.562293333333     0.877216666667     0.763845000000     0.051      
Gd       Gd     0.562293333333     0.956116666667     0.513845000000     0.051      
Gd       Gd     0.604373333333     0.789450000000     0.736155000000     0.051      
Gd       Gd     0.771040000000     0.043883333333     0.486155000000     0.051      
Gd       Gd     0.728960000000     0.210550000000     0.263845000000     0.051      
Gd       Gd     0.728960000000     0.289450000000     0.013845000000     0.051      
Gd       Gd     0.771040000000     0.122783333333     0.236155000000     0.051      
Gd       Gd     0.771040000000     0.043883333333     0.986155000000     0.051      
Gd       Gd     0.728960000000     0.210550000000     0.763845000000     0.051      
Gd       Gd     0.728960000000     0.289450000000     0.513845000000     0.051      
Gd       Gd     0.771040000000     0.122783333333     0.736155000000     0.051      
Gd       Gd     0.771040000000     0.377216666667     0.486155000000     0.051      
Gd       Gd     0.728960000000     0.543883333333     0.263845000000     0.051      
Gd       Gd     0.728960000000     0.622783333333     0.013845000000     0.051      
Gd       Gd     0.771040000000     0.456116666667     0.236155000000     0.051      
Gd       Gd     0.771040000000     0.377216666667     0.986155000000     0.051      
Gd       Gd     0.728960000000     0.543883333333     0.763845000000     0.051      
Gd       Gd     0.728960000000     0.622783333333     0.513845000000     0.051      
Gd       Gd     0.771040000000     0.456116666667     0.736155000000     0.051      
Gd       Gd     0.771040000000     0.710550000000     0.486155000000     0.051      
Gd       Gd     0.728960000000     0.877216666667     0.263845000000     0.051      
Gd       Gd     0.728960000000     0.956116666667     0.013845000000     0.051      
Gd       Gd     0.771040000000     0.789450000000     0.236155000000     0.051      
Gd       Gd     0.771040000000     0.710550000000     0.986155000000     0.051      
Gd       Gd     0.728960000000     0.877216666667     0.763845000000     0.051      
Gd       Gd     0.728960000000     0.956116666667     0.513845000000     0.051      
Gd       Gd     0.771040000000     0.789450000000     0.736155000000     0.051      
Gd       Gd     0.937706666667     0.043883333333     0.486155000000     0.051      
Gd       Gd     0.895626666667     0.210550000000     0.263845000000     0.051      
Gd       Gd     0.895626666667     0.289450000000     0.013845000000     0.051      
Gd       Gd     0.937706666667     0.122783333333     0.236155000000     0.051      
Gd       Gd     0.937706666667     0.043883333333     0.986155000000     0.051      
Gd       Gd     0.895626666667     0.210550000000     0.763845000000     0.051      
Gd       Gd     0.895626666667     0.289450000000     0.513845000000     0.051      
Gd       Gd     0.937706666667     0.122783333333     0.736155000000     0.051      
Gd       Gd     0.937706666667     0.377216666667     0.486155000000     0.051      
Gd       Gd     0.895626666667     0.543883333333     0.263845000000     0.051      
Gd       Gd     0.895626666667     0.622783333333     0.013845000000     0.051      
Gd       Gd     0.937706666667     0.456116666667     0.236155000000     0.051      
Gd       Gd     0.937706666667     0.377216666667     0.986155000000     0.051      
Gd       Gd     0.895626666667     0.543883333333     0.763845000000     0.051      
Gd       Gd     0.895626666667     0.622783333333     0.513845000000     0.051      
Gd       Gd     0.937706666667     0.456116666667     0.736155000000     0.051      
Gd       Gd     0.937706666667     0.710550000000     0.486155000000     0.051      
Gd       Gd     0.895626666667     0.877216666667     0.263845000000     0.051      
Gd       Gd     0.895626666667     0.956116666667     0.013845000000     0.051      
Gd       Gd     0.937706666667     0.789450000000     0.236155000000     0.051      
Gd       Gd     0.937706666667     0.710550000000     0.986155000000     0.051      
Gd       Gd     0.895626666667     0.877216666667     0.763845000000     0.051      
Gd       Gd     0.895626666667     0.956116666667     0.513845000000     0.051      
Gd       Gd     0.937706666667     0.789450000000     0.736155000000     0.051      
P        P      0.152266666667     0.007433333333     0.043225000000     0.046      
P        P      0.014400000000     0.174100000000     0.206775000000     0.046      
P        P      0.014400000000     0.325900000000     0.456775000000     0.046      
P        P      0.152266666667     0.159233333333     0.293225000000     0.046      
P        P      0.152266666667     0.007433333333     0.543225000000     0.046      
P        P      0.014400000000     0.174100000000     0.706775000000     0.046      
P        P      0.014400000000     0.325900000000     0.956775000000     0.046      
P        P      0.152266666667     0.159233333333     0.793225000000     0.046      
P        P      0.152266666667     0.340766666667     0.043225000000     0.046      
P        P      0.014400000000     0.507433333333     0.206775000000     0.046      
P        P      0.014400000000     0.659233333333     0.456775000000     0.046      
P        P      0.152266666667     0.492566666667     0.293225000000     0.046      
P        P      0.152266666667     0.340766666667     0.543225000000     0.046      
P        P      0.014400000000     0.507433333333     0.706775000000     0.046      
P        P      0.014400000000     0.659233333333     0.956775000000     0.046      
P        P      0.152266666667     0.492566666667     0.793225000000     0.046      
P        P      0.152266666667     0.674100000000     0.043225000000     0.046      
P        P      0.014400000000     0.840766666667     0.206775000000     0.046      
P        P      0.014400000000     0.992566666667     0.456775000000     0.046      
P        P      0.152266666667     0.825900000000     0.293225000000     0.046      
P        P      0.152266666667     0.674100000000     0.543225000000     0.046      
P        P      0.014400000000     0.840766666667     0.706775000000     0.046      
P        P      0.014400000000     0.992566666667     0.956775000000     0.046      
P        P      0.152266666667     0.825900000000     0.793225000000     0.046      
P        P      0.318933333333     0.007433333333     0.043225000000     0.046      
P        P      0.181066666667     0.174100000000     0.206775000000     0.046      
P        P      0.181066666667     0.325900000000     0.456775000000     0.046      
P        P      0.318933333333     0.159233333333     0.293225000000     0.046      
P        P      0.318933333333     0.007433333333     0.543225000000     0.046      
P        P      0.181066666667     0.174100000000     0.706775000000     0.046      
P        P      0.181066666667     0.325900000000     0.956775000000     0.046      
P        P      0.318933333333     0.159233333333     0.793225000000     0.046      
P        P      0.318933333333     0.340766666667     0.043225000000     0.046      
P        P      0.181066666667     0.507433333333     0.206775000000     0.046      
P        P      0.181066666667     0.659233333333     0.456775000000     0.046      
P        P      0.318933333333     0.492566666667     0.293225000000     0.046      
P        P      0.318933333333     0.340766666667     0.543225000000     0.046      
P        P      0.181066666667     0.507433333333     0.706775000000     0.046      
P        P      0.181066666667     0.659233333333     0.956775000000     0.046      
P        P      0.318933333333     0.492566666667     0.793225000000     0.046      
P        P      0.318933333333     0.674100000000     0.043225000000     0.046      
P        P      0.181066666667     0.840766666667     0.206775000000     0.046      
P        P      0.181066666667     0.992566666667     0.456775000000     0.046      
P        P      0.318933333333     0.825900000000     0.293225000000     0.046      
P        P      0.318933333333     0.674100000000     0.543225000000     0.046      
P        P      0.181066666667     0.840766666667     0.706775000000     0.046      
P        P      0.181066666667     0.992566666667     0.956775000000     0.046      
P        P      0.318933333333     0.825900000000     0.793225000000     0.046      
P        P      0.485600000000     0.007433333333     0.043225000000     0.046      
P        P      0.347733333333     0.174100000000     0.206775000000     0.046      
P        P      0.347733333333     0.325900000000     0.456775000000     0.046      
P        P      0.485600000000     0.159233333333     0.293225000000     0.046      
P        P      0.485600000000     0.007433333333     0.543225000000     0.046      
P        P      0.347733333333     0.174100000000     0.706775000000     0.046      
P        P      0.347733333333     0.325900000000     0.956775000000     0.046      
P        P      0.485600000000     0.159233333333     0.793225000000     0.046      
P        P      0.485600000000     0.340766666667     0.043225000000     0.046      
P        P      0.347733333333     0.507433333333     0.206775000000     0.046      
P        P      0.347733333333     0.659233333333     0.456775000000     0.046      
P        P      0.485600000000     0.492566666667     0.293225000000     0.046      
P        P      0.485600000000     0.340766666667     0.543225000000     0.046      
P        P      0.347733333333     0.507433333333     0.706775000000     0.046      
P        P      0.347733333333     0.659233333333     0.956775000000     0.046      
P        P      0.485600000000     0.492566666667     0.793225000000     0.046      
P        P      0.485600000000     0.674100000000     0.043225000000     0.046      
P        P      0.347733333333     0.840766666667     0.206775000000     0.046      
P        P      0.347733333333     0.992566666667     0.456775000000     0.046      
P        P      0.485600000000     0.825900000000     0.293225000000     0.046      
P        P      0.485600000000     0.674100000000     0.543225000000     0.046      
P        P      0.347733333333     0.840766666667     0.706775000000     0.046      
P        P      0.347733333333     0.992566666667     0.956775000000     0.046      
P        P      0.485600000000     0.825900000000     0.793225000000     0.046      
P        P      0.652266666667     0.007433333333     0.043225000000     0.046      
P        P      0.514400000000     0.174100000000     0.206775000000     0.046      
P        P      0.514400000000     0.325900000000     0.456775000000     0.046      
P        P      0.652266666667     0.159233333333     0.293225000000     0.046      
P        P      0.652266666667     0.007433333333     0.543225000000     0.046      
P        P      0.514400000000     0.174100000000     0.706775000000     0.046      
P        P      0.514400000000     0.325900000000     0.956775000000     0.046      
P        P      0.652266666667     0.159233333333     0.793225000000     0.046      
P        P      0.652266666667     0.340766666667     0.043225000000     0.046      
P        P      0.514400000000     0.507433333333     0.206775000000     0.046      
P        P      0.514400000000     0.659233333333     0.456775000000     0.046      
P        P      0.652266666667     0.492566666667     0.293225000000     0.046      
P        P      0.652266666667     0.340766666667     0.543225000000     0.046      
P        P      0.514400000000     0.507433333333     0.706775000000     0.046      
P        P      0.514400000000     0.659233333333     0.956775000000     0.046      
P        P      0.652266666667     0.492566666667     0.793225000000     0.046      
P        P      0.652266666667     0.674100000000     0.043225000000     0.046      
P        P      0.514400000000     0.840766666667     0.206775000000     0.046      
P        P      0.514400000000     0.992566666667     0.456775000000     0.046      
P        P      0.652266666667     0.825900000000     0.293225000000     0.046      
P        P      0.652266666667     0.674100000000     0.543225000000     0.046      
P        P      0.514400000000     0.840766666667     0.706775000000     0.046      
P        P      0.514400000000     0.992566666667     0.956775000000     0.046      
P        P      0.652266666667     0.825900000000     0.793225000000     0.046      
P        P      0.818933333333     0.007433333333     0.043225000000     0.046      
P        P      0.681066666667     0.174100000000     0.206775000000     0.046      
P        P      0.681066666667     0.325900000000     0.456775000000     0.046      
P        P      0.818933333333     0.159233333333     0.293225000000     0.046      
P        P      0.818933333333     0.007433333333     0.543225000000     0.046      
P        P      0.681066666667     0.174100000000     0.706775000000     0.046      
P        P      0.681066666667     0.325900000000     0.956775000000     0.046      
P        P      0.818933333333     0.159233333333     0.793225000000     0.046      
P        P      0.818933333333     0.340766666667     0.043225000000     0.046      
P        P      0.681066666667     0.507433333333     0.206775000000     0.046      
P        P      0.681066666667     0.659233333333     0.456775000000     0.046      
P        P      0.818933333333     0.492566666667     0.293225000000     0.046      
P        P      0.818933333333     0.340766666667     0.543225000000     0.046      
P        P      0.681066666667     0.507433333333     0.706775000000     0.046      
P        P      0.681066666667     0.659233333333     0.956775000000     0.046      
P        P      0.818933333333     0.492566666667     0.793225000000     0.046      
P        P      0.818933333333     0.674100000000     0.043225000000     0.046      
P        P      0.681066666667     0.840766666667     0.206775000000     0.046      
P        P      0.681066666667     0.992566666667     0.456775000000     0.046      
P        P      0.818933333333     0.825900000000     0.293225000000     0.046      
P        P      0.818933333333     0.674100000000     0.543225000000     0.046      
P        P      0.681066666667     0.840766666667     0.706775000000     0.046      
P        P      0.681066666667     0.992566666667     0.956775000000     0.046      
P        P      0.818933333333     0.825900000000     0.793225000000     0.046      
P        P      0.985600000000     0.007433333333     0.043225000000     0.046      
P        P      0.847733333333     0.174100000000     0.206775000000     0.046      
P        P      0.847733333333     0.325900000000     0.456775000000     0.046      
P        P      0.985600000000     0.159233333333     0.293225000000     0.046      
P        P      0.985600000000     0.007433333333     0.543225000000     0.046      
P        P      0.847733333333     0.174100000000     0.706775000000     0.046      
P        P      0.847733333333     0.325900000000     0.956775000000     0.046      
P        P      0.985600000000     0.159233333333     0.793225000000     0.046      
P        P      0.985600000000     0.340766666667     0.043225000000     0.046      
P        P      0.847733333333     0.507433333333     0.206775000000     0.046      
P        P      0.847733333333     0.659233333333     0.456775000000     0.046      
P        P      0.985600000000     0.492566666667     0.293225000000     0.046      
P        P      0.985600000000     0.340766666667     0.543225000000     0.046      
P        P      0.847733333333     0.507433333333     0.706775000000     0.046      
P        P      0.847733333333     0.659233333333     0.956775000000     0.046      
P        P      0.985600000000     0.492566666667     0.793225000000     0.046      
P        P      0.985600000000     0.674100000000     0.043225000000     0.046      
P        P      0.847733333333     0.840766666667     0.206775000000     0.046      
P        P      0.847733333333     0.992566666667     0.456775000000     0.046      
P        P      0.985600000000     0.825900000000     0.293225000000     0.046      
P        P      0.985600000000     0.674100000000     0.543225000000     0.046      
P        P      0.847733333333     0.840766666667     0.706775000000     0.046      
P        P      0.847733333333     0.992566666667     0.956775000000     0.046      
P        P      0.985600000000     0.825900000000     0.793225000000     0.046      
H        H      0.128450000000     0.324600000000     0.090750000000     0.105      
H        H      0.113183333333     0.027033333333     0.081650000000     0.105      
H        H      0.127716666667     0.032200000000     0.140900000000     0.105      
H        H      0.150983333333     0.331633333333     0.144100000000     0.105      
H        H      0.006050000000     0.032700000000     0.186550000000     0.105      
H        H      0.041916666667     0.024400000000     0.166350000000     0.105      
H        H      0.164466666667     0.084500000000     0.162400000000     0.105      
H        H      0.037816666667     0.101333333333     0.123700000000     0.105      
H        H      0.061400000000     0.067566666667     0.126400000000     0.105      
H        H      0.013166666667     0.066200000000     0.080900000000     0.105      
H        H      0.144916666667     0.073566666667     0.102500000000     0.105      
H        H      0.038216666667     0.157933333333     0.159250000000     0.105      
H        H      0.053483333333     0.193700000000     0.168350000000     0.105      
H        H      0.038950000000     0.198866666667     0.109100000000     0.105      
H        H      0.015683333333     0.164966666667     0.105900000000     0.105      
H        H      0.160616666667     0.199366666667     0.063450000000     0.105      
H        H      0.124750000000     0.191066666667     0.083650000000     0.105      
H        H      0.002200000000     0.251166666667     0.087600000000     0.105      
H        H      0.128850000000     0.268000000000     0.126300000000     0.105      
H        H      0.105266666667     0.234233333333     0.123600000000     0.105      
H        H      0.153500000000     0.232866666667     0.169100000000     0.105      
H        H      0.021750000000     0.240233333333     0.147500000000     0.105      
H        H      0.038216666667     0.008733333333     0.409250000000     0.105      
H        H      0.053483333333     0.306300000000     0.418350000000     0.105      
H        H      0.038950000000     0.301133333333     0.359100000000     0.105      
H        H      0.015683333333     0.001700000000     0.355900000000     0.105      
H        H      0.160616666667     0.300633333333     0.313450000000     0.105      
H        H      0.124750000000     0.308933333333     0.333650000000     0.105      
H        H      0.002200000000     0.248833333333     0.337600000000     0.105      
H        H      0.128850000000     0.232000000000     0.376300000000     0.105      
H        H      0.105266666667     0.265766666667     0.373600000000     0.105      
H        H      0.153500000000     0.267133333333     0.419100000000     0.105      
H        H      0.021750000000     0.259766666667     0.397500000000     0.105      
H        H      0.128450000000     0.175400000000     0.340750000000     0.105      
H        H      0.113183333333     0.139633333333     0.331650000000     0.105      
H        H      0.127716666667     0.134466666667     0.390900000000     0.105      
H        H      0.150983333333     0.168366666667     0.394100000000     0.105      
H        H      0.006050000000     0.133966666667     0.436550000000     0.105      
H        H      0.041916666667     0.142266666667     0.416350000000     0.105      
H        H      0.164466666667     0.082166666667     0.412400000000     0.105      
H        H      0.037816666667     0.065333333333     0.373700000000     0.105      
H        H      0.061400000000     0.099100000000     0.376400000000     0.105      
H        H      0.013166666667     0.100466666667     0.330900000000     0.105      
H        H      0.144916666667     0.093100000000     0.352500000000     0.105      
H        H      0.128450000000     0.324600000000     0.590750000000     0.105      
H        H      0.113183333333     0.027033333333     0.581650000000     0.105      
H        H      0.127716666667     0.032200000000     0.640900000000     0.105      
H        H      0.150983333333     0.331633333333     0.644100000000     0.105      
H        H      0.006050000000     0.032700000000     0.686550000000     0.105      
H        H      0.041916666667     0.024400000000     0.666350000000     0.105      
H        H      0.164466666667     0.084500000000     0.662400000000     0.105      
H        H      0.037816666667     0.101333333333     0.623700000000     0.105      
H        H      0.061400000000     0.067566666667     0.626400000000     0.105      
H        H      0.013166666667     0.066200000000     0.580900000000     0.105      
H        H      0.144916666667     0.073566666667     0.602500000000     0.105      
H        H      0.038216666667     0.157933333333     0.659250000000     0.105      
H        H      0.053483333333     0.193700000000     0.668350000000     0.105      
H        H      0.038950000000     0.198866666667     0.609100000000     0.105      
H        H      0.015683333333     0.164966666667     0.605900000000     0.105      
H        H      0.160616666667     0.199366666667     0.563450000000     0.105      
H        H      0.124750000000     0.191066666667     0.583650000000     0.105      
H        H      0.002200000000     0.251166666667     0.587600000000     0.105      
H        H      0.128850000000     0.268000000000     0.626300000000     0.105      
H        H      0.105266666667     0.234233333333     0.623600000000     0.105      
H        H      0.153500000000     0.232866666667     0.669100000000     0.105      
H        H      0.021750000000     0.240233333333     0.647500000000     0.105      
H        H      0.038216666667     0.008733333333     0.909250000000     0.105      
H        H      0.053483333333     0.306300000000     0.918350000000     0.105      
H        H      0.038950000000     0.301133333333     0.859100000000     0.105      
H        H      0.015683333333     0.001700000000     0.855900000000     0.105      
H        H      0.160616666667     0.300633333333     0.813450000000     0.105      
H        H      0.124750000000     0.308933333333     0.833650000000     0.105      
H        H      0.002200000000     0.248833333333     0.837600000000     0.105      
H        H      0.128850000000     0.232000000000     0.876300000000     0.105      
H        H      0.105266666667     0.265766666667     0.873600000000     0.105      
H        H      0.153500000000     0.267133333333     0.919100000000     0.105      
H        H      0.021750000000     0.259766666667     0.897500000000     0.105      
H        H      0.128450000000     0.175400000000     0.840750000000     0.105      
H        H      0.113183333333     0.139633333333     0.831650000000     0.105      
H        H      0.127716666667     0.134466666667     0.890900000000     0.105      
H        H      0.150983333333     0.168366666667     0.894100000000     0.105      
H        H      0.006050000000     0.133966666667     0.936550000000     0.105      
H        H      0.041916666667     0.142266666667     0.916350000000     0.105      
H        H      0.164466666667     0.082166666667     0.912400000000     0.105      
H        H      0.037816666667     0.065333333333     0.873700000000     0.105      
H        H      0.061400000000     0.099100000000     0.876400000000     0.105      
H        H      0.013166666667     0.100466666667     0.830900000000     0.105      
H        H      0.144916666667     0.093100000000     0.852500000000     0.105      
H        H      0.128450000000     0.657933333333     0.090750000000     0.105      
H        H      0.113183333333     0.360366666667     0.081650000000     0.105      
H        H      0.127716666667     0.365533333333     0.140900000000     0.105      
H        H      0.150983333333     0.664966666667     0.144100000000     0.105      
H        H      0.006050000000     0.366033333333     0.186550000000     0.105      
H        H      0.041916666667     0.357733333333     0.166350000000     0.105      
H        H      0.164466666667     0.417833333333     0.162400000000     0.105      
H        H      0.037816666667     0.434666666667     0.123700000000     0.105      
H        H      0.061400000000     0.400900000000     0.126400000000     0.105      
H        H      0.013166666667     0.399533333333     0.080900000000     0.105      
H        H      0.144916666667     0.406900000000     0.102500000000     0.105      
H        H      0.038216666667     0.491266666667     0.159250000000     0.105      
H        H      0.053483333333     0.527033333333     0.168350000000     0.105      
H        H      0.038950000000     0.532200000000     0.109100000000     0.105      
H        H      0.015683333333     0.498300000000     0.105900000000     0.105      
H        H      0.160616666667     0.532700000000     0.063450000000     0.105      
H        H      0.124750000000     0.524400000000     0.083650000000     0.105      
H        H      0.002200000000     0.584500000000     0.087600000000     0.105      
H        H      0.128850000000     0.601333333333     0.126300000000     0.105      
H        H      0.105266666667     0.567566666667     0.123600000000     0.105      
H        H      0.153500000000     0.566200000000     0.169100000000     0.105      
H        H      0.021750000000     0.573566666667     0.147500000000     0.105      
H        H      0.038216666667     0.342066666667     0.409250000000     0.105      
H        H      0.053483333333     0.639633333333     0.418350000000     0.105      
H        H      0.038950000000     0.634466666667     0.359100000000     0.105      
H        H      0.015683333333     0.335033333333     0.355900000000     0.105      
H        H      0.160616666667     0.633966666667     0.313450000000     0.105      
H        H      0.124750000000     0.642266666667     0.333650000000     0.105      
H        H      0.002200000000     0.582166666667     0.337600000000     0.105      
H        H      0.128850000000     0.565333333333     0.376300000000     0.105      
H        H      0.105266666667     0.599100000000     0.373600000000     0.105      
H        H      0.153500000000     0.600466666667     0.419100000000     0.105      
H        H      0.021750000000     0.593100000000     0.397500000000     0.105      
H        H      0.128450000000     0.508733333333     0.340750000000     0.105      
H        H      0.113183333333     0.472966666667     0.331650000000     0.105      
H        H      0.127716666667     0.467800000000     0.390900000000     0.105      
H        H      0.150983333333     0.501700000000     0.394100000000     0.105      
H        H      0.006050000000     0.467300000000     0.436550000000     0.105      
H        H      0.041916666667     0.475600000000     0.416350000000     0.105      
H        H      0.164466666667     0.415500000000     0.412400000000     0.105      
H        H      0.037816666667     0.398666666667     0.373700000000     0.105      
H        H      0.061400000000     0.432433333333     0.376400000000     0.105      
H        H      0.013166666667     0.433800000000     0.330900000000     0.105      
H        H      0.144916666667     0.426433333333     0.352500000000     0.105      
H        H      0.128450000000     0.657933333333     0.590750000000     0.105      
H        H      0.113183333333     0.360366666667     0.581650000000     0.105      
H        H      0.127716666667     0.365533333333     0.640900000000     0.105      
H        H      0.150983333333     0.664966666667     0.644100000000     0.105      
H        H      0.006050000000     0.366033333333     0.686550000000     0.105      
H        H      0.041916666667     0.357733333333     0.666350000000     0.105      
H        H      0.164466666667     0.417833333333     0.662400000000     0.105      
H        H      0.037816666667     0.434666666667     0.623700000000     0.105      
H        H      0.061400000000     0.400900000000     0.626400000000     0.105      
H        H      0.013166666667     0.399533333333     0.580900000000     0.105      
H        H      0.144916666667     0.406900000000     0.602500000000     0.105      
H        H      0.038216666667     0.491266666667     0.659250000000     0.105      
H        H      0.053483333333     0.527033333333     0.668350000000     0.105      
H        H      0.038950000000     0.532200000000     0.609100000000     0.105      
H        H      0.015683333333     0.498300000000     0.605900000000     0.105      
H        H      0.160616666667     0.532700000000     0.563450000000     0.105      
H        H      0.124750000000     0.524400000000     0.583650000000     0.105      
H        H      0.002200000000     0.584500000000     0.587600000000     0.105      
H        H      0.128850000000     0.601333333333     0.626300000000     0.105      
H        H      0.105266666667     0.567566666667     0.623600000000     0.105      
H        H      0.153500000000     0.566200000000     0.669100000000     0.105      
H        H      0.021750000000     0.573566666667     0.647500000000     0.105      
H        H      0.038216666667     0.342066666667     0.909250000000     0.105      
H        H      0.053483333333     0.639633333333     0.918350000000     0.105      
H        H      0.038950000000     0.634466666667     0.859100000000     0.105      
H        H      0.015683333333     0.335033333333     0.855900000000     0.105      
H        H      0.160616666667     0.633966666667     0.813450000000     0.105      
H        H      0.124750000000     0.642266666667     0.833650000000     0.105      
H        H      0.002200000000     0.582166666667     0.837600000000     0.105      
H        H      0.128850000000     0.565333333333     0.876300000000     0.105      
H        H      0.105266666667     0.599100000000     0.873600000000     0.105      
H        H      0.153500000000     0.600466666667     0.919100000000     0.105      
H        H      0.021750000000     0.593100000000     0.897500000000     0.105      
H        H      0.128450000000     0.508733333333     0.840750000000     0.105      
H        H      0.113183333333     0.472966666667     0.831650000000     0.105      
H        H      0.127716666667     0.467800000000     0.890900000000     0.105      
H        H      0.150983333333     0.501700000000     0.894100000000     0.105      
H        H      0.006050000000     0.467300000000     0.936550000000     0.105      
H        H      0.041916666667     0.475600000000     0.916350000000     0.105      
H        H      0.164466666667     0.415500000000     0.912400000000     0.105      
H        H      0.037816666667     0.398666666667     0.873700000000     0.105      
H        H      0.061400000000     0.432433333333     0.876400000000     0.105      
H        H      0.013166666667     0.433800000000     0.830900000000     0.105      
H        H      0.144916666667     0.426433333333     0.852500000000     0.105      
H        H      0.128450000000     0.991266666667     0.090750000000     0.105      
H        H      0.113183333333     0.693700000000     0.081650000000     0.105      
H        H      0.127716666667     0.698866666667     0.140900000000     0.105      
H        H      0.150983333333     0.998300000000     0.144100000000     0.105      
H        H      0.006050000000     0.699366666667     0.186550000000     0.105      
H        H      0.041916666667     0.691066666667     0.166350000000     0.105      
H        H      0.164466666667     0.751166666667     0.162400000000     0.105      
H        H      0.037816666667     0.768000000000     0.123700000000     0.105      
H        H      0.061400000000     0.734233333333     0.126400000000     0.105      
H        H      0.013166666667     0.732866666667     0.080900000000     0.105      
H        H      0.144916666667     0.740233333333     0.102500000000     0.105      
H        H      0.038216666667     0.824600000000     0.159250000000     0.105      
H        H      0.053483333333     0.860366666667     0.168350000000     0.105      
H        H      0.038950000000     0.865533333333     0.109100000000     0.105      
H        H      0.015683333333     0.831633333333     0.105900000000     0.105      
H        H      0.160616666667     0.866033333333     0.063450000000     0.105      
H        H      0.124750000000     0.857733333333     0.083650000000     0.105      
H        H      0.002200000000     0.917833333333     0.087600000000     0.105      
H        H      0.128850000000     0.934666666667     0.126300000000     0.105      
H        H      0.105266666667     0.900900000000     0.123600000000     0.105      
H        H      0.153500000000     0.899533333333     0.169100000000     0.105      
H        H      0.021750000000     0.906900000000     0.147500000000     0.105      
H        H      0.038216666667     0.675400000000     0.409250000000     0.105      
H        H      0.053483333333     0.972966666667     0.418350000000     0.105      
H        H      0.038950000000     0.967800000000     0.359100000000     0.105      
H        H      0.015683333333     0.668366666667     0.355900000000     0.105      
H        H      0.160616666667     0.967300000000     0.313450000000     0.105      
H        H      0.124750000000     0.975600000000     0.333650000000     0.105      
H        H      0.002200000000     0.915500000000     0.337600000000     0.105      
H        H      0.128850000000     0.898666666667     0.376300000000     0.105      
H        H      0.105266666667     0.932433333333     0.373600000000     0.105      
H        H      0.153500000000     0.933800000000     0.419100000000     0.105      
H        H      0.021750000000     0.926433333333     0.397500000000     0.105      
H        H      0.128450000000     0.842066666667     0.340750000000     0.105      
H        H      0.113183333333     0.806300000000     0.331650000000     0.105      
H        H      0.127716666667     0.801133333333     0.390900000000     0.105      
H        H      0.150983333333     0.835033333333     0.394100000000     0.105      
H        H      0.006050000000     0.800633333333     0.436550000000     0.105      
H        H      0.041916666667     0.808933333333     0.416350000000     0.105      
H        H      0.164466666667     0.748833333333     0.412400000000     0.105      
H        H      0.037816666667     0.732000000000     0.373700000000     0.105      
H        H      0.061400000000     0.765766666667     0.376400000000     0.105      
H        H      0.013166666667     0.767133333333     0.330900000000     0.105      
H        H      0.144916666667     0.759766666667     0.352500000000     0.105      
H        H      0.128450000000     0.991266666667     0.590750000000     0.105      
H        H      0.113183333333     0.693700000000     0.581650000000     0.105      
H        H      0.127716666667     0.698866666667     0.640900000000     0.105      
H        H      0.150983333333     0.998300000000     0.644100000000     0.105      
H        H      0.006050000000     0.699366666667     0.686550000000     0.105      
H        H      0.041916666667     0.691066666667     0.666350000000     0.105      
H        H      0.164466666667     0.751166666667     0.662400000000     0.105      
H        H      0.037816666667     0.768000000000     0.623700000000     0.105      
H        H      0.061400000000     0.734233333333     0.626400000000     0.105      
H        H      0.013166666667     0.732866666667     0.580900000000     0.105      
H        H      0.144916666667     0.740233333333     0.602500000000     0.105      
H        H      0.038216666667     0.824600000000     0.659250000000     0.105      
H        H      0.053483333333     0.860366666667     0.668350000000     0.105      
H        H      0.038950000000     0.865533333333     0.609100000000     0.105      
H        H      0.015683333333     0.831633333333     0.605900000000     0.105      
H        H      0.160616666667     0.866033333333     0.563450000000     0.105      
H        H      0.124750000000     0.857733333333     0.583650000000     0.105      
H        H      0.002200000000     0.917833333333     0.587600000000     0.105      
H        H      0.128850000000     0.934666666667     0.626300000000     0.105      
H        H      0.105266666667     0.900900000000     0.623600000000     0.105      
H        H      0.153500000000     0.899533333333     0.669100000000     0.105      
H        H      0.021750000000     0.906900000000     0.647500000000     0.105      
H        H      0.038216666667     0.675400000000     0.909250000000     0.105      
H        H      0.053483333333     0.972966666667     0.918350000000     0.105      
H        H      0.038950000000     0.967800000000     0.859100000000     0.105      
H        H      0.015683333333     0.668366666667     0.855900000000     0.105      
H        H      0.160616666667     0.967300000000     0.813450000000     0.105      
H        H      0.124750000000     0.975600000000     0.833650000000     0.105      
H        H      0.002200000000     0.915500000000     0.837600000000     0.105      
H        H      0.128850000000     0.898666666667     0.876300000000     0.105      
H        H      0.105266666667     0.932433333333     0.873600000000     0.105      
H        H      0.153500000000     0.933800000000     0.919100000000     0.105      
H        H      0.021750000000     0.926433333333     0.897500000000     0.105      
H        H      0.128450000000     0.842066666667     0.840750000000     0.105      
H        H      0.113183333333     0.806300000000     0.831650000000     0.105      
H        H      0.127716666667     0.801133333333     0.890900000000     0.105      
H        H      0.150983333333     0.835033333333     0.894100000000     0.105      
H        H      0.006050000000     0.800633333333     0.936550000000     0.105      
H        H      0.041916666667     0.808933333333     0.916350000000     0.105      
H        H      0.164466666667     0.748833333333     0.912400000000     0.105      
H        H      0.037816666667     0.732000000000     0.873700000000     0.105      
H        H      0.061400000000     0.765766666667     0.876400000000     0.105      
H        H      0.013166666667     0.767133333333     0.830900000000     0.105      
H        H      0.144916666667     0.759766666667     0.852500000000     0.105      
H        H      0.295116666667     0.324600000000     0.090750000000     0.105      
H        H      0.279850000000     0.027033333333     0.081650000000     0.105      
H        H      0.294383333333     0.032200000000     0.140900000000     0.105      
H        H      0.317650000000     0.331633333333     0.144100000000     0.105      
H        H      0.172716666667     0.032700000000     0.186550000000     0.105      
H        H      0.208583333333     0.024400000000     0.166350000000     0.105      
H        H      0.331133333333     0.084500000000     0.162400000000     0.105      
H        H      0.204483333333     0.101333333333     0.123700000000     0.105      
H        H      0.228066666667     0.067566666667     0.126400000000     0.105      
H        H      0.179833333333     0.066200000000     0.080900000000     0.105      
H        H      0.311583333333     0.073566666667     0.102500000000     0.105      
H        H      0.204883333333     0.157933333333     0.159250000000     0.105      
H        H      0.220150000000     0.193700000000     0.168350000000     0.105      
H        H      0.205616666667     0.198866666667     0.109100000000     0.105      
H        H      0.182350000000     0.164966666667     0.105900000000     0.105      
H        H      0.327283333333     0.199366666667     0.063450000000     0.105      
H        H      0.291416666667     0.191066666667     0.083650000000     0.105      
H        H      0.168866666667     0.251166666667     0.087600000000     0.105      
H        H      0.295516666667     0.268000000000     0.126300000000     0.105      
H        H      0.271933333333     0.234233333333     0.123600000000     0.105      
H        H      0.320166666667     0.232866666667     0.169100000000     0.105      
H        H      0.188416666667     0.240233333333     0.147500000000     0.105      
H        H      0.204883333333     0.008733333333     0.409250000000     0.105      
H        H      0.220150000000     0.306300000000     0.418350000000     0.105      
H        H      0.205616666667     0.301133333333     0.359100000000     0.105      
H        H      0.182350000000     0.001700000000     0.355900000000     0.105      
H        H      0.327283333333     0.300633333333     0.313450000000     0.105      
H        H      0.291416666667     0.308933333333     0.333650000000     0.105      
H        H      0.168866666667     0.248833333333     0.337600000000     0.105      
H        H      0.295516666667     0.232000000000     0.376300000000     0.105      
H        H      0.271933333333     0.265766666667     0.373600000000     0.105      
H        H      0.320166666667     0.267133333333     0.419100000000     0.105      
H        H      0.188416666667     0.259766666667     0.397500000000     0.105      
H        H      0.295116666667     0.175400000000     0.340750000000     0.105      
H        H      0.279850000000     0.139633333333     0.331650000000     0.105      
H        H      0.294383333333     0.134466666667     0.390900000000     0.105      
H        H      0.317650000000     0.168366666667     0.394100000000     0.105      
H        H      0.172716666667     0.133966666667     0.436550000000     0.105      
H        H      0.208583333333     0.142266666667     0.416350000000     0.105      
H        H      0.331133333333     0.082166666667     0.412400000000     0.105      
H        H      0.204483333333     0.065333333333     0.373700000000     0.105      
H        H      0.228066666667     0.099100000000     0.376400000000     0.105      
H        H      0.179833333333     0.100466666667     0.330900000000     0.105      
H        H      0.311583333333     0.093100000000     0.352500000000     0.105      
H        H      0.295116666667     0.324600000000     0.590750000000     0.105      
H        H      0.279850000000     0.027033333333     0.581650000000     0.105      
H        H      0.294383333333     0.032200000000     0.640900000000     0.105      
H        H      0.317650000000     0.331633333333     0.644100000000     0.105      
H        H      0.172716666667     0.032700000000     0.686550000000     0.105      
H        H      0.208583333333     0.024400000000     0.666350000000     0.105      
H        H      0.331133333333     0.084500000000     0.662400000000     0.105      
H        H      0.204483333333     0.101333333333     0.623700000000     0.105      
H        H      0.228066666667     0.067566666667     0.626400000000     0.105      
H        H      0.179833333333     0.066200000000     0.580900000000     0.105      
H        H      0.311583333333     0.073566666667     0.602500000000     0.105      
H        H      0.204883333333     0.157933333333     0.659250000000     0.105      
H        H      0.220150000000     0.193700000000     0.668350000000     0.105      
H        H      0.205616666667     0.198866666667     0.609100000000     0.105      
H        H      0.182350000000     0.164966666667     0.605900000000     0.105      
H        H      0.327283333333     0.199366666667     0.563450000000     0.105      
H        H      0.291416666667     0.191066666667     0.583650000000     0.105      
H        H      0.168866666667     0.251166666667     0.587600000000     0.105      
H        H      0.295516666667     0.268000000000     0.626300000000     0.105      
H        H      0.271933333333     0.234233333333     0.623600000000     0.105      
H        H      0.320166666667     0.232866666667     0.669100000000     0.105      
H        H      0.188416666667     0.240233333333     0.647500000000     0.105      
H        H      0.204883333333     0.008733333333     0.909250000000     0.105      
H        H      0.220150000000     0.306300000000     0.918350000000     0.105      
H        H      0.205616666667     0.301133333333     0.859100000000     0.105      
H        H      0.182350000000     0.001700000000     0.855900000000     0.105      
H        H      0.327283333333     0.300633333333     0.813450000000     0.105      
H        H      0.291416666667     0.308933333333     0.833650000000     0.105      
H        H      0.168866666667     0.248833333333     0.837600000000     0.105      
H        H      0.295516666667     0.232000000000     0.876300000000     0.105      
H        H      0.271933333333     0.265766666667     0.873600000000     0.105      
H        H      0.320166666667     0.267133333333     0.919100000000     0.105      
H        H      0.188416666667     0.259766666667     0.897500000000     0.105      
H        H      0.295116666667     0.175400000000     0.840750000000     0.105      
H        H      0.279850000000     0.139633333333     0.831650000000     0.105      
H        H      0.294383333333     0.134466666667     0.890900000000     0.105      
H        H      0.317650000000     0.168366666667     0.894100000000     0.105      
H        H      0.172716666667     0.133966666667     0.936550000000     0.105      
H        H      0.208583333333     0.142266666667     0.916350000000     0.105      
H        H      0.331133333333     0.082166666667     0.912400000000     0.105      
H        H      0.204483333333     0.065333333333     0.873700000000     0.105      
H        H      0.228066666667     0.099100000000     0.876400000000     0.105      
H        H      0.179833333333     0.100466666667     0.830900000000     0.105      
H        H      0.311583333333     0.093100000000     0.852500000000     0.105      
H        H      0.295116666667     0.657933333333     0.090750000000     0.105      
H        H      0.279850000000     0.360366666667     0.081650000000     0.105      
H        H      0.294383333333     0.365533333333     0.140900000000     0.105      
H        H      0.317650000000     0.664966666667     0.144100000000     0.105      
H        H      0.172716666667     0.366033333333     0.186550000000     0.105      
H        H      0.208583333333     0.357733333333     0.166350000000     0.105      
H        H      0.331133333333     0.417833333333     0.162400000000     0.105      
H        H      0.204483333333     0.434666666667     0.123700000000     0.105      
H        H      0.228066666667     0.400900000000     0.126400000000     0.105      
H        H      0.179833333333     0.399533333333     0.080900000000     0.105      
H        H      0.311583333333     0.406900000000     0.102500000000     0.105      
H        H      0.204883333333     0.491266666667     0.159250000000     0.105      
H        H      0.220150000000     0.527033333333     0.168350000000     0.105      
H        H      0.205616666667     0.532200000000     0.109100000000     0.105      
H        H      0.182350000000     0.498300000000     0.105900000000     0.105      
H        H      0.327283333333     0.532700000000     0.063450000000     0.105      
H        H      0.291416666667     0.524400000000     0.083650000000     0.105      
H        H      0.168866666667     0.584500000000     0.087600000000     0.105      
H        H      0.295516666667     0.601333333333     0.126300000000     0.105      
H        H      0.271933333333     0.567566666667     0.123600000000     0.105      
H        H      0.320166666667     0.566200000000     0.169100000000     0.105      
H        H      0.188416666667     0.573566666667     0.147500000000     0.105      
H        H      0.204883333333     0.342066666667     0.409250000000     0.105      
H        H      0.220150000000     0.639633333333     0.418350000000     0.105      
H        H      0.205616666667     0.634466666667     0.359100000000     0.105      
H        H      0.182350000000     0.335033333333     0.355900000000     0.105      
H        H      0.327283333333     0.633966666667     0.313450000000     0.105      
H        H      0.291416666667     0.642266666667     0.333650000000     0.105      
H        H      0.168866666667     0.582166666667     0.337600000000     0.105      
H        H      0.295516666667     0.565333333333     0.376300000000     0.105      
H        H      0.271933333333     0.599100000000     0.373600000000     0.105      
H        H      0.320166666667     0.600466666667     0.419100000000     0.105      
H        H      0.188416666667     0.593100000000     0.397500000000     0.105      
H        H      0.295116666667     0.508733333333     0.340750000000     0.105      
H        H      0.279850000000     0.472966666667     0.331650000000     0.105      
H        H      0.294383333333     0.467800000000     0.390900000000     0.105      
H        H      0.317650000000     0.501700000000     0.394100000000     0.105      
H        H      0.172716666667     0.467300000000     0.436550000000     0.105      
H        H      0.208583333333     0.475600000000     0.416350000000     0.105      
H        H      0.331133333333     0.415500000000     0.412400000000     0.105      
H        H      0.204483333333     0.398666666667     0.373700000000     0.105      
H        H      0.228066666667     0.432433333333     0.376400000000     0.105      
H        H      0.179833333333     0.433800000000     0.330900000000     0.105      
H        H      0.311583333333     0.426433333333     0.352500000000     0.105      
H        H      0.295116666667     0.657933333333     0.590750000000     0.105      
H        H      0.279850000000     0.360366666667     0.581650000000     0.105      
H        H      0.294383333333     0.365533333333     0.640900000000     0.105      
H        H      0.317650000000     0.664966666667     0.644100000000     0.105      
H        H      0.172716666667     0.366033333333     0.686550000000     0.105      
H        H      0.208583333333     0.357733333333     0.666350000000     0.105      
H        H      0.331133333333     0.417833333333     0.662400000000     0.105      
H        H      0.204483333333     0.434666666667     0.623700000000     0.105      
H        H      0.228066666667     0.400900000000     0.626400000000     0.105      
H        H      0.179833333333     0.399533333333     0.580900000000     0.105      
H        H      0.311583333333     0.406900000000     0.602500000000     0.105      
H        H      0.204883333333     0.491266666667     0.659250000000     0.105      
H        H      0.220150000000     0.527033333333     0.668350000000     0.105      
H        H      0.205616666667     0.532200000000     0.609100000000     0.105      
H        H      0.182350000000     0.498300000000     0.605900000000     0.105      
H        H      0.327283333333     0.532700000000     0.563450000000     0.105      
H        H      0.291416666667     0.524400000000     0.583650000000     0.105      
H        H      0.168866666667     0.584500000000     0.587600000000     0.105      
H        H      0.295516666667     0.601333333333     0.626300000000     0.105      
H        H      0.271933333333     0.567566666667     0.623600000000     0.105      
H        H      0.320166666667     0.566200000000     0.669100000000     0.105      
H        H      0.188416666667     0.573566666667     0.647500000000     0.105      
H        H      0.204883333333     0.342066666667     0.909250000000     0.105      
H        H      0.220150000000     0.639633333333     0.918350000000     0.105      
H        H      0.205616666667     0.634466666667     0.859100000000     0.105      
H        H      0.182350000000     0.335033333333     0.855900000000     0.105      
H        H      0.327283333333     0.633966666667     0.813450000000     0.105      
H        H      0.291416666667     0.642266666667     0.833650000000     0.105      
H        H      0.168866666667     0.582166666667     0.837600000000     0.105      
H        H      0.295516666667     0.565333333333     0.876300000000     0.105      
H        H      0.271933333333     0.599100000000     0.873600000000     0.105      
H        H      0.320166666667     0.600466666667     0.919100000000     0.105      
H        H      0.188416666667     0.593100000000     0.897500000000     0.105      
H        H      0.295116666667     0.508733333333     0.840750000000     0.105      
H        H      0.279850000000     0.472966666667     0.831650000000     0.105      
H        H      0.294383333333     0.467800000000     0.890900000000     0.105      
H        H      0.317650000000     0.501700000000     0.894100000000     0.105      
H        H      0.172716666667     0.467300000000     0.936550000000     0.105      
H        H      0.208583333333     0.475600000000     0.916350000000     0.105      
H        H      0.331133333333     0.415500000000     0.912400000000     0.105      
H        H      0.204483333333     0.398666666667     0.873700000000     0.105      
H        H      0.228066666667     0.432433333333     0.876400000000     0.105      
H        H      0.179833333333     0.433800000000     0.830900000000     0.105      
H        H      0.311583333333     0.426433333333     0.852500000000     0.105      
H        H      0.295116666667     0.991266666667     0.090750000000     0.105      
H        H      0.279850000000     0.693700000000     0.081650000000     0.105      
H        H      0.294383333333     0.698866666667     0.140900000000     0.105      
H        H      0.317650000000     0.998300000000     0.144100000000     0.105      
H        H      0.172716666667     0.699366666667     0.186550000000     0.105      
H        H      0.208583333333     0.691066666667     0.166350000000     0.105      
H        H      0.331133333333     0.751166666667     0.162400000000     0.105      
H        H      0.204483333333     0.768000000000     0.123700000000     0.105      
H        H      0.228066666667     0.734233333333     0.126400000000     0.105      
H        H      0.179833333333     0.732866666667     0.080900000000     0.105      
H        H      0.311583333333     0.740233333333     0.102500000000     0.105      
H        H      0.204883333333     0.824600000000     0.159250000000     0.105      
H        H      0.220150000000     0.860366666667     0.168350000000     0.105      
H        H      0.205616666667     0.865533333333     0.109100000000     0.105      
H        H      0.182350000000     0.831633333333     0.105900000000     0.105      
H        H      0.327283333333     0.866033333333     0.063450000000     0.105      
H        H      0.291416666667     0.857733333333     0.083650000000     0.105      
H        H      0.168866666667     0.917833333333     0.087600000000     0.105      
H        H      0.295516666667     0.934666666667     0.126300000000     0.105      
H        H      0.271933333333     0.900900000000     0.123600000000     0.105      
H        H      0.320166666667     0.899533333333     0.169100000000     0.105      
H        H      0.188416666667     0.906900000000     0.147500000000     0.105      
H        H      0.204883333333     0.675400000000     0.409250000000     0.105      
H        H      0.220150000000     0.972966666667     0.418350000000     0.105      
H        H      0.205616666667     0.967800000000     0.359100000000     0.105      
H        H      0.182350000000     0.668366666667     0.355900000000     0.105      
H        H      0.327283333333     0.967300000000     0.313450000000     0.105      
H        H      0.291416666667     0.975600000000     0.333650000000     0.105      
H        H      0.168866666667     0.915500000000     0.337600000000     0.105      
H        H      0.295516666667     0.898666666667     0.376300000000     0.105      
H        H      0.271933333333     0.932433333333     0.373600000000     0.105      
H        H      0.320166666667     0.933800000000     0.419100000000     0.105      
H        H      0.188416666667     0.926433333333     0.397500000000     0.105      
H        H      0.295116666667     0.842066666667     0.340750000000     0.105      
H        H      0.279850000000     0.806300000000     0.331650000000     0.105      
H        H      0.294383333333     0.801133333333     0.390900000000     0.105      
H        H      0.317650000000     0.835033333333     0.394100000000     0.105      
H        H      0.172716666667     0.800633333333     0.436550000000     0.105      
H        H      0.208583333333     0.808933333333     0.416350000000     0.105      
H        H      0.331133333333     0.748833333333     0.412400000000     0.105      
H        H      0.204483333333     0.732000000000     0.373700000000     0.105      
H        H      0.228066666667     0.765766666667     0.376400000000     0.105      
H        H      0.179833333333     0.767133333333     0.330900000000     0.105      
H        H      0.311583333333     0.759766666667     0.352500000000     0.105      
H        H      0.295116666667     0.991266666667     0.590750000000     0.105      
H        H      0.279850000000     0.693700000000     0.581650000000     0.105      
H        H      0.294383333333     0.698866666667     0.640900000000     0.105      
H        H      0.317650000000     0.998300000000     0.644100000000     0.105      
H        H      0.172716666667     0.699366666667     0.686550000000     0.105      
H        H      0.208583333333     0.691066666667     0.666350000000     0.105      
H        H      0.331133333333     0.751166666667     0.662400000000     0.105      
H        H      0.204483333333     0.768000000000     0.623700000000     0.105      
H        H      0.228066666667     0.734233333333     0.626400000000     0.105      
H        H      0.179833333333     0.732866666667     0.580900000000     0.105      
H        H      0.311583333333     0.740233333333     0.602500000000     0.105      
H        H      0.204883333333     0.824600000000     0.659250000000     0.105      
H        H      0.220150000000     0.860366666667     0.668350000000     0.105      
H        H      0.205616666667     0.865533333333     0.609100000000     0.105      
H        H      0.182350000000     0.831633333333     0.605900000000     0.105      
H        H      0.327283333333     0.866033333333     0.563450000000     0.105      
H        H      0.291416666667     0.857733333333     0.583650000000     0.105      
H        H      0.168866666667     0.917833333333     0.587600000000     0.105      
H        H      0.295516666667     0.934666666667     0.626300000000     0.105      
H        H      0.271933333333     0.900900000000     0.623600000000     0.105      
H        H      0.320166666667     0.899533333333     0.669100000000     0.105      
H        H      0.188416666667     0.906900000000     0.647500000000     0.105      
H        H      0.204883333333     0.675400000000     0.909250000000     0.105      
H        H      0.220150000000     0.972966666667     0.918350000000     0.105      
H        H      0.205616666667     0.967800000000     0.859100000000     0.105      
H        H      0.182350000000     0.668366666667     0.855900000000     0.105      
H        H      0.327283333333     0.967300000000     0.813450000000     0.105      
H        H      0.291416666667     0.975600000000     0.833650000000     0.105      
H        H      0.168866666667     0.915500000000     0.837600000000     0.105      
H        H      0.295516666667     0.898666666667     0.876300000000     0.105      
H        H      0.271933333333     0.932433333333     0.873600000000     0.105      
H        H      0.320166666667     0.933800000000     0.919100000000     0.105      
H        H      0.188416666667     0.926433333333     0.897500000000     0.105      
H        H      0.295116666667     0.842066666667     0.840750000000     0.105      
H        H      0.279850000000     0.806300000000     0.831650000000     0.105      
H        H      0.294383333333     0.801133333333     0.890900000000     0.105      
H        H      0.317650000000     0.835033333333     0.894100000000     0.105      
H        H      0.172716666667     0.800633333333     0.936550000000     0.105      
H        H      0.208583333333     0.808933333333     0.916350000000     0.105      
H        H      0.331133333333     0.748833333333     0.912400000000     0.105      
H        H      0.204483333333     0.732000000000     0.873700000000     0.105      
H        H      0.228066666667     0.765766666667     0.876400000000     0.105      
H        H      0.179833333333     0.767133333333     0.830900000000     0.105      
H        H      0.311583333333     0.759766666667     0.852500000000     0.105      
H        H      0.461783333333     0.324600000000     0.090750000000     0.105      
H        H      0.446516666667     0.027033333333     0.081650000000     0.105      
H        H      0.461050000000     0.032200000000     0.140900000000     0.105      
H        H      0.484316666667     0.331633333333     0.144100000000     0.105      
H        H      0.339383333333     0.032700000000     0.186550000000     0.105      
H        H      0.375250000000     0.024400000000     0.166350000000     0.105      
H        H      0.497800000000     0.084500000000     0.162400000000     0.105      
H        H      0.371150000000     0.101333333333     0.123700000000     0.105      
H        H      0.394733333333     0.067566666667     0.126400000000     0.105      
H        H      0.346500000000     0.066200000000     0.080900000000     0.105      
H        H      0.478250000000     0.073566666667     0.102500000000     0.105      
H        H      0.371550000000     0.157933333333     0.159250000000     0.105      
H        H      0.386816666667     0.193700000000     0.168350000000     0.105      
H        H      0.372283333333     0.198866666667     0.109100000000     0.105      
H        H      0.349016666667     0.164966666667     0.105900000000     0.105      
H        H      0.493950000000     0.199366666667     0.063450000000     0.105      
H        H      0.458083333333     0.191066666667     0.083650000000     0.105      
H        H      0.335533333333     0.251166666667     0.087600000000     0.105      
H        H      0.462183333333     0.268000000000     0.126300000000     0.105      
H        H      0.438600000000     0.234233333333     0.123600000000     0.105      
H        H      0.486833333333     0.232866666667     0.169100000000     0.105      
H        H      0.355083333333     0.240233333333     0.147500000000     0.105      
H        H      0.371550000000     0.008733333333     0.409250000000     0.105      
H        H      0.386816666667     0.306300000000     0.418350000000     0.105      
H        H      0.372283333333     0.301133333333     0.359100000000     0.105      
H        H      0.349016666667     0.001700000000     0.355900000000     0.105      
H        H      0.493950000000     0.300633333333     0.313450000000     0.105      
H        H      0.458083333333     0.308933333333     0.333650000000     0.105      
H        H      0.335533333333     0.248833333333     0.337600000000     0.105      
H        H      0.462183333333     0.232000000000     0.376300000000     0.105      
H        H      0.438600000000     0.265766666667     0.373600000000     0.105      
H        H      0.486833333333     0.267133333333     0.419100000000     0.105      
H        H      0.355083333333     0.259766666667     0.397500000000     0.105      
H        H      0.461783333333     0.175400000000     0.340750000000     0.105      
H        H      0.446516666667     0.139633333333     0.331650000000     0.105      
H        H      0.461050000000     0.134466666667     0.390900000000     0.105      
H        H      0.484316666667     0.168366666667     0.394100000000     0.105      
H        H      0.339383333333     0.133966666667     0.436550000000     0.105      
H        H      0.375250000000     0.142266666667     0.416350000000     0.105      
H        H      0.497800000000     0.082166666667     0.412400000000     0.105      
H        H      0.371150000000     0.065333333333     0.373700000000     0.105      
H        H      0.394733333333     0.099100000000     0.376400000000     0.105      
H        H      0.346500000000     0.100466666667     0.330900000000     0.105      
H        H      0.478250000000     0.093100000000     0.352500000000     0.105      
H        H      0.461783333333     0.324600000000     0.590750000000     0.105      
H        H      0.446516666667     0.027033333333     0.581650000000     0.105      
H        H      0.461050000000     0.032200000000     0.640900000000     0.105      
H        H      0.484316666667     0.331633333333     0.644100000000     0.105      
H        H      0.339383333333     0.032700000000     0.686550000000     0.105      
H        H      0.375250000000     0.024400000000     0.666350000000     0.105      
H        H      0.497800000000     0.084500000000     0.662400000000     0.105      
H        H      0.371150000000     0.101333333333     0.623700000000     0.105      
H        H      0.394733333333     0.067566666667     0.626400000000     0.105      
H        H      0.346500000000     0.066200000000     0.580900000000     0.105      
H        H      0.478250000000     0.073566666667     0.602500000000     0.105      
H        H      0.371550000000     0.157933333333     0.659250000000     0.105      
H        H      0.386816666667     0.193700000000     0.668350000000     0.105      
H        H      0.372283333333     0.198866666667     0.609100000000     0.105      
H        H      0.349016666667     0.164966666667     0.605900000000     0.105      
H        H      0.493950000000     0.199366666667     0.563450000000     0.105      
H        H      0.458083333333     0.191066666667     0.583650000000     0.105      
H        H      0.335533333333     0.251166666667     0.587600000000     0.105      
H        H      0.462183333333     0.268000000000     0.626300000000     0.105      
H        H      0.438600000000     0.234233333333     0.623600000000     0.105      
H        H      0.486833333333     0.232866666667     0.669100000000     0.105      
H        H      0.355083333333     0.240233333333     0.647500000000     0.105      
H        H      0.371550000000     0.008733333333     0.909250000000     0.105      
H        H      0.386816666667     0.306300000000     0.918350000000     0.105      
H        H      0.372283333333     0.301133333333     0.859100000000     0.105      
H        H      0.349016666667     0.001700000000     0.855900000000     0.105      
H        H      0.493950000000     0.300633333333     0.813450000000     0.105      
H        H      0.458083333333     0.308933333333     0.833650000000     0.105      
H        H      0.335533333333     0.248833333333     0.837600000000     0.105      
H        H      0.462183333333     0.232000000000     0.876300000000     0.105      
H        H      0.438600000000     0.265766666667     0.873600000000     0.105      
H        H      0.486833333333     0.267133333333     0.919100000000     0.105      
H        H      0.355083333333     0.259766666667     0.897500000000     0.105      
H        H      0.461783333333     0.175400000000     0.840750000000     0.105      
H        H      0.446516666667     0.139633333333     0.831650000000     0.105      
H        H      0.461050000000     0.134466666667     0.890900000000     0.105      
H        H      0.484316666667     0.168366666667     0.894100000000     0.105      
H        H      0.339383333333     0.133966666667     0.936550000000     0.105      
H        H      0.375250000000     0.142266666667     0.916350000000     0.105      
H        H      0.497800000000     0.082166666667     0.912400000000     0.105      
H        H      0.371150000000     0.065333333333     0.873700000000     0.105      
H        H      0.394733333333     0.099100000000     0.876400000000     0.105      
H        H      0.346500000000     0.100466666667     0.830900000000     0.105      
H        H      0.478250000000     0.093100000000     0.852500000000     0.105      
H        H      0.461783333333     0.657933333333     0.090750000000     0.105      
H        H      0.446516666667     0.360366666667     0.081650000000     0.105      
H        H      0.461050000000     0.365533333333     0.140900000000     0.105      
H        H      0.484316666667     0.664966666667     0.144100000000     0.105      
H        H      0.339383333333     0.366033333333     0.186550000000     0.105      
H        H      0.375250000000     0.357733333333     0.166350000000     0.105      
H        H      0.497800000000     0.417833333333     0.162400000000     0.105      
H        H      0.371150000000     0.434666666667     0.123700000000     0.105      
H        H      0.394733333333     0.400900000000     0.126400000000     0.105      
H        H      0.346500000000     0.399533333333     0.080900000000     0.105      
H        H      0.478250000000     0.406900000000     0.102500000000     0.105      
H        H      0.371550000000     0.491266666667     0.159250000000     0.105      
H        H      0.386816666667     0.527033333333     0.168350000000     0.105      
H        H      0.372283333333     0.532200000000     0.109100000000     0.105      
H        H      0.349016666667     0.498300000000     0.105900000000     0.105      
H        H      0.493950000000     0.532700000000     0.063450000000     0.105      
H        H      0.458083333333     0.524400000000     0.083650000000     0.105      
H        H      0.335533333333     0.584500000000     0.087600000000     0.105      
H        H      0.462183333333     0.601333333333     0.126300000000     0.105      
H        H      0.438600000000     0.567566666667     0.123600000000     0.105      
H        H      0.486833333333     0.566200000000     0.169100000000     0.105      
H        H      0.355083333333     0.573566666667     0.147500000000     0.105      
H        H      0.371550000000     0.342066666667     0.409250000000     0.105      
H        H      0.386816666667     0.639633333333     0.418350000000     0.105      
H        H      0.372283333333     0.634466666667     0.359100000000     0.105      
H        H      0.349016666667     0.335033333333     0.355900000000     0.105      
H        H      0.493950000000     0.633966666667     0.313450000000     0.105      
H        H      0.458083333333     0.642266666667     0.333650000000     0.105      
H        H      0.335533333333     0.582166666667     0.337600000000     0.105      
H        H      0.462183333333     0.565333333333     0.376300000000     0.105      
H        H      0.438600000000     0.599100000000     0.373600000000     0.105      
H        H      0.486833333333     0.600466666667     0.419100000000     0.105      
H        H      0.355083333333     0.593100000000     0.397500000000     0.105      
H        H      0.461783333333     0.508733333333     0.340750000000     0.105      
H        H      0.446516666667     0.472966666667     0.331650000000     0.105      
H        H      0.461050000000     0.467800000000     0.390900000000     0.105      
H        H      0.484316666667     0.501700000000     0.394100000000     0.105      
H        H      0.339383333333     0.467300000000     0.436550000000     0.105      
H        H      0.375250000000     0.475600000000     0.416350000000     0.105      
H        H      0.497800000000     0.415500000000     0.412400000000     0.105      
H        H      0.371150000000     0.398666666667     0.373700000000     0.105      
H        H      0.394733333333     0.432433333333     0.376400000000     0.105      
H        H      0.346500000000     0.433800000000     0.330900000000     0.105      
H        H      0.478250000000     0.426433333333     0.352500000000     0.105      
H        H      0.461783333333     0.657933333333     0.590750000000     0.105      
H        H      0.446516666667     0.360366666667     0.581650000000     0.105      
H        H      0.461050000000     0.365533333333     0.640900000000     0.105      
H        H      0.484316666667     0.664966666667     0.644100000000     0.105      
H        H      0.339383333333     0.366033333333     0.686550000000     0.105      
H        H      0.375250000000     0.357733333333     0.666350000000     0.105      
H        H      0.497800000000     0.417833333333     0.662400000000     0.105      
H        H      0.371150000000     0.434666666667     0.623700000000     0.105      
H        H      0.394733333333     0.400900000000     0.626400000000     0.105      
H        H      0.346500000000     0.399533333333     0.580900000000     0.105      
H        H      0.478250000000     0.406900000000     0.602500000000     0.105      
H        H      0.371550000000     0.491266666667     0.659250000000     0.105      
H        H      0.386816666667     0.527033333333     0.668350000000     0.105      
H        H      0.372283333333     0.532200000000     0.609100000000     0.105      
H        H      0.349016666667     0.498300000000     0.605900000000     0.105      
H        H      0.493950000000     0.532700000000     0.563450000000     0.105      
H        H      0.458083333333     0.524400000000     0.583650000000     0.105      
H        H      0.335533333333     0.584500000000     0.587600000000     0.105      
H        H      0.462183333333     0.601333333333     0.626300000000     0.105      
H        H      0.438600000000     0.567566666667     0.623600000000     0.105      
H        H      0.486833333333     0.566200000000     0.669100000000     0.105      
H        H      0.355083333333     0.573566666667     0.647500000000     0.105      
H        H      0.371550000000     0.342066666667     0.909250000000     0.105      
H        H      0.386816666667     0.639633333333     0.918350000000     0.105      
H        H      0.372283333333     0.634466666667     0.859100000000     0.105      
H        H      0.349016666667     0.335033333333     0.855900000000     0.105      
H        H      0.493950000000     0.633966666667     0.813450000000     0.105      
H        H      0.458083333333     0.642266666667     0.833650000000     0.105      
H        H      0.335533333333     0.582166666667     0.837600000000     0.105      
H        H      0.462183333333     0.565333333333     0.876300000000     0.105      
H        H      0.438600000000     0.599100000000     0.873600000000     0.105      
H        H      0.486833333333     0.600466666667     0.919100000000     0.105      
H        H      0.355083333333     0.593100000000     0.897500000000     0.105      
H        H      0.461783333333     0.508733333333     0.840750000000     0.105      
H        H      0.446516666667     0.472966666667     0.831650000000     0.105      
H        H      0.461050000000     0.467800000000     0.890900000000     0.105      
H        H      0.484316666667     0.501700000000     0.894100000000     0.105      
H        H      0.339383333333     0.467300000000     0.936550000000     0.105      
H        H      0.375250000000     0.475600000000     0.916350000000     0.105      
H        H      0.497800000000     0.415500000000     0.912400000000     0.105      
H        H      0.371150000000     0.398666666667     0.873700000000     0.105      
H        H      0.394733333333     0.432433333333     0.876400000000     0.105      
H        H      0.346500000000     0.433800000000     0.830900000000     0.105      
H        H      0.478250000000     0.426433333333     0.852500000000     0.105      
H        H      0.461783333333     0.991266666667     0.090750000000     0.105      
H        H      0.446516666667     0.693700000000     0.081650000000     0.105      
H        H      0.461050000000     0.698866666667     0.140900000000     0.105      
H        H      0.484316666667     0.998300000000     0.144100000000     0.105      
H        H      0.339383333333     0.699366666667     0.186550000000     0.105      
H        H      0.375250000000     0.691066666667     0.166350000000     0.105      
H        H      0.497800000000     0.751166666667     0.162400000000     0.105      
H        H      0.371150000000     0.768000000000     0.123700000000     0.105      
H        H      0.394733333333     0.734233333333     0.126400000000     0.105      
H        H      0.346500000000     0.732866666667     0.080900000000     0.105      
H        H      0.478250000000     0.740233333333     0.102500000000     0.105      
H        H      0.371550000000     0.824600000000     0.159250000000     0.105      
H        H      0.386816666667     0.860366666667     0.168350000000     0.105      
H        H      0.372283333333     0.865533333333     0.109100000000     0.105      
H        H      0.349016666667     0.831633333333     0.105900000000     0.105      
H        H      0.493950000000     0.866033333333     0.063450000000     0.105      
H        H      0.458083333333     0.857733333333     0.083650000000     0.105      
H        H      0.335533333333     0.917833333333     0.087600000000     0.105      
H        H      0.462183333333     0.934666666667     0.126300000000     0.105      
H        H      0.438600000000     0.900900000000     0.123600000000     0.105      
H        H      0.486833333333     0.899533333333     0.169100000000     0.105      
H        H      0.355083333333     0.906900000000     0.147500000000     0.105      
H        H      0.371550000000     0.675400000000     0.409250000000     0.105      
H        H      0.386816666667     0.972966666667     0.418350000000     0.105      
H        H      0.372283333333     0.967800000000     0.359100000000     0.105      
H        H      0.349016666667     0.668366666667     0.355900000000     0.105      
H        H      0.493950000000     0.967300000000     0.313450000000     0.105      
H        H      0.458083333333     0.975600000000     0.333650000000     0.105      
H        H      0.335533333333     0.915500000000     0.337600000000     0.105      
H        H      0.462183333333     0.898666666667     0.376300000000     0.105      
H        H      0.438600000000     0.932433333333     0.373600000000     0.105      
H        H      0.486833333333     0.933800000000     0.419100000000     0.105      
H        H      0.355083333333     0.926433333333     0.397500000000     0.105      
H        H      0.461783333333     0.842066666667     0.340750000000     0.105      
H        H      0.446516666667     0.806300000000     0.331650000000     0.105      
H        H      0.461050000000     0.801133333333     0.390900000000     0.105      
H        H      0.484316666667     0.835033333333     0.394100000000     0.105      
H        H      0.339383333333     0.800633333333     0.436550000000     0.105      
H        H      0.375250000000     0.808933333333     0.416350000000     0.105      
H        H      0.497800000000     0.748833333333     0.412400000000     0.105      
H        H      0.371150000000     0.732000000000     0.373700000000     0.105      
H        H      0.394733333333     0.765766666667     0.376400000000     0.105      
H        H      0.346500000000     0.767133333333     0.330900000000     0.105      
H        H      0.478250000000     0.759766666667     0.352500000000     0.105      
H        H      0.461783333333     0.991266666667     0.590750000000     0.105      
H        H      0.446516666667     0.693700000000     0.581650000000     0.105      
H        H      0.461050000000     0.698866666667     0.640900000000     0.105      
H        H      0.484316666667     0.998300000000     0.644100000000     0.105      
H        H      0.339383333333     0.699366666667     0.686550000000     0.105      
H        H      0.375250000000     0.691066666667     0.666350000000     0.105      
H        H      0.497800000000     0.751166666667     0.662400000000     0.105      
H        H      0.371150000000     0.768000000000     0.623700000000     0.105      
H        H      0.394733333333     0.734233333333     0.626400000000     0.105      
H        H      0.346500000000     0.732866666667     0.580900000000     0.105      
H        H      0.478250000000     0.740233333333     0.602500000000     0.105      
H        H      0.371550000000     0.824600000000     0.659250000000     0.105      
H        H      0.386816666667     0.860366666667     0.668350000000     0.105      
H        H      0.372283333333     0.865533333333     0.609100000000     0.105      
H        H      0.349016666667     0.831633333333     0.605900000000     0.105      
H        H      0.493950000000     0.866033333333     0.563450000000     0.105      
H        H      0.458083333333     0.857733333333     0.583650000000     0.105      
H        H      0.335533333333     0.917833333333     0.587600000000     0.105      
H        H      0.462183333333     0.934666666667     0.626300000000     0.105      
H        H      0.438600000000     0.900900000000     0.623600000000     0.105      
H        H      0.486833333333     0.899533333333     0.669100000000     0.105      
H        H      0.355083333333     0.906900000000     0.647500000000     0.105      
H        H      0.371550000000     0.675400000000     0.909250000000     0.105      
H        H      0.386816666667     0.972966666667     0.918350000000     0.105      
H        H      0.372283333333     0.967800000000     0.859100000000     0.105      
H        H      0.349016666667     0.668366666667     0.855900000000     0.105      
H        H      0.493950000000     0.967300000000     0.813450000000     0.105      
H        H      0.458083333333     0.975600000000     0.833650000000     0.105      
H        H      0.335533333333     0.915500000000     0.837600000000     0.105      
H        H      0.462183333333     0.898666666667     0.876300000000     0.105      
H        H      0.438600000000     0.932433333333     0.873600000000     0.105      
H        H      0.486833333333     0.933800000000     0.919100000000     0.105      
H        H      0.355083333333     0.926433333333     0.897500000000     0.105      
H        H      0.461783333333     0.842066666667     0.840750000000     0.105      
H        H      0.446516666667     0.806300000000     0.831650000000     0.105      
H        H      0.461050000000     0.801133333333     0.890900000000     0.105      
H        H      0.484316666667     0.835033333333     0.894100000000     0.105      
H        H      0.339383333333     0.800633333333     0.936550000000     0.105      
H        H      0.375250000000     0.808933333333     0.916350000000     0.105      
H        H      0.497800000000     0.748833333333     0.912400000000     0.105      
H        H      0.371150000000     0.732000000000     0.873700000000     0.105      
H        H      0.394733333333     0.765766666667     0.876400000000     0.105      
H        H      0.346500000000     0.767133333333     0.830900000000     0.105      
H        H      0.478250000000     0.759766666667     0.852500000000     0.105      
H        H      0.628450000000     0.324600000000     0.090750000000     0.105      
H        H      0.613183333333     0.027033333333     0.081650000000     0.105      
H        H      0.627716666667     0.032200000000     0.140900000000     0.105      
H        H      0.650983333333     0.331633333333     0.144100000000     0.105      
H        H      0.506050000000     0.032700000000     0.186550000000     0.105      
H        H      0.541916666667     0.024400000000     0.166350000000     0.105      
H        H      0.664466666667     0.084500000000     0.162400000000     0.105      
H        H      0.537816666667     0.101333333333     0.123700000000     0.105      
H        H      0.561400000000     0.067566666667     0.126400000000     0.105      
H        H      0.513166666667     0.066200000000     0.080900000000     0.105      
H        H      0.644916666667     0.073566666667     0.102500000000     0.105      
H        H      0.538216666667     0.157933333333     0.159250000000     0.105      
H        H      0.553483333333     0.193700000000     0.168350000000     0.105      
H        H      0.538950000000     0.198866666667     0.109100000000     0.105      
H        H      0.515683333333     0.164966666667     0.105900000000     0.105      
H        H      0.660616666667     0.199366666667     0.063450000000     0.105      
H        H      0.624750000000     0.191066666667     0.083650000000     0.105      
H        H      0.502200000000     0.251166666667     0.087600000000     0.105      
H        H      0.628850000000     0.268000000000     0.126300000000     0.105      
H        H      0.605266666667     0.234233333333     0.123600000000     0.105      
H        H      0.653500000000     0.232866666667     0.169100000000     0.105      
H        H      0.521750000000     0.240233333333     0.147500000000     0.105      
H        H      0.538216666667     0.008733333333     0.409250000000     0.105      
H        H      0.553483333333     0.306300000000     0.418350000000     0.105      
H        H      0.538950000000     0.301133333333     0.359100000000     0.105      
H        H      0.515683333333     0.001700000000     0.355900000000     0.105      
H        H      0.660616666667     0.300633333333     0.313450000000     0.105      
H        H      0.624750000000     0.308933333333     0.333650000000     0.105      
H        H      0.502200000000     0.248833333333     0.337600000000     0.105      
H        H      0.628850000000     0.232000000000     0.376300000000     0.105      
H        H      0.605266666667     0.265766666667     0.373600000000     0.105      
H        H      0.653500000000     0.267133333333     0.419100000000     0.105      
H        H      0.521750000000     0.259766666667     0.397500000000     0.105      
H        H      0.628450000000     0.175400000000     0.340750000000     0.105      
H        H      0.613183333333     0.139633333333     0.331650000000     0.105      
H        H      0.627716666667     0.134466666667     0.390900000000     0.105      
H        H      0.650983333333     0.168366666667     0.394100000000     0.105      
H        H      0.506050000000     0.133966666667     0.436550000000     0.105      
H        H      0.541916666667     0.142266666667     0.416350000000     0.105      
H        H      0.664466666667     0.082166666667     0.412400000000     0.105      
H        H      0.537816666667     0.065333333333     0.373700000000     0.105      
H        H      0.561400000000     0.099100000000     0.376400000000     0.105      
H        H      0.513166666667     0.100466666667     0.330900000000     0.105      
H        H      0.644916666667     0.093100000000     0.352500000000     0.105      
H        H      0.628450000000     0.324600000000     0.590750000000     0.105      
H        H      0.613183333333     0.027033333333     0.581650000000     0.105      
H        H      0.627716666667     0.032200000000     0.640900000000     0.105      
H        H      0.650983333333     0.331633333333     0.644100000000     0.105      
H        H      0.506050000000     0.032700000000     0.686550000000     0.105      
H        H      0.541916666667     0.024400000000     0.666350000000     0.105      
H        H      0.664466666667     0.084500000000     0.662400000000     0.105      
H        H      0.537816666667     0.101333333333     0.623700000000     0.105      
H        H      0.561400000000     0.067566666667     0.626400000000     0.105      
H        H      0.513166666667     0.066200000000     0.580900000000     0.105      
H        H      0.644916666667     0.073566666667     0.602500000000     0.105      
H        H      0.538216666667     0.157933333333     0.659250000000     0.105      
H        H      0.553483333333     0.193700000000     0.668350000000     0.105      
H        H      0.538950000000     0.198866666667     0.609100000000     0.105      
H        H      0.515683333333     0.164966666667     0.605900000000     0.105      
H        H      0.660616666667     0.199366666667     0.563450000000     0.105      
H        H      0.624750000000     0.191066666667     0.583650000000     0.105      
H        H      0.502200000000     0.251166666667     0.587600000000     0.105      
H        H      0.628850000000     0.268000000000     0.626300000000     0.105      
H        H      0.605266666667     0.234233333333     0.623600000000     0.105      
H        H      0.653500000000     0.232866666667     0.669100000000     0.105      
H        H      0.521750000000     0.240233333333     0.647500000000     0.105      
H        H      0.538216666667     0.008733333333     0.909250000000     0.105      
H        H      0.553483333333     0.306300000000     0.918350000000     0.105      
H        H      0.538950000000     0.301133333333     0.859100000000     0.105      
H        H      0.515683333333     0.001700000000     0.855900000000     0.105      
H        H      0.660616666667     0.300633333333     0.813450000000     0.105      
H        H      0.624750000000     0.308933333333     0.833650000000     0.105      
H        H      0.502200000000     0.248833333333     0.837600000000     0.105      
H        H      0.628850000000     0.232000000000     0.876300000000     0.105      
H        H      0.605266666667     0.265766666667     0.873600000000     0.105      
H        H      0.653500000000     0.267133333333     0.919100000000     0.105      
H        H      0.521750000000     0.259766666667     0.897500000000     0.105      
H        H      0.628450000000     0.175400000000     0.840750000000     0.105      
H        H      0.613183333333     0.139633333333     0.831650000000     0.105      
H        H      0.627716666667     0.134466666667     0.890900000000     0.105      
H        H      0.650983333333     0.168366666667     0.894100000000     0.105      
H        H      0.506050000000     0.133966666667     0.936550000000     0.105      
H        H      0.541916666667     0.142266666667     0.916350000000     0.105      
H        H      0.664466666667     0.082166666667     0.912400000000     0.105      
H        H      0.537816666667     0.065333333333     0.873700000000     0.105      
H        H      0.561400000000     0.099100000000     0.876400000000     0.105      
H        H      0.513166666667     0.100466666667     0.830900000000     0.105      
H        H      0.644916666667     0.093100000000     0.852500000000     0.105      
H        H      0.628450000000     0.657933333333     0.090750000000     0.105      
H        H      0.613183333333     0.360366666667     0.081650000000     0.105      
H        H      0.627716666667     0.365533333333     0.140900000000     0.105      
H        H      0.650983333333     0.664966666667     0.144100000000     0.105      
H        H      0.506050000000     0.366033333333     0.186550000000     0.105      
H        H      0.541916666667     0.357733333333     0.166350000000     0.105      
H        H      0.664466666667     0.417833333333     0.162400000000     0.105      
H        H      0.537816666667     0.434666666667     0.123700000000     0.105      
H        H      0.561400000000     0.400900000000     0.126400000000     0.105      
H        H      0.513166666667     0.399533333333     0.080900000000     0.105      
H        H      0.644916666667     0.406900000000     0.102500000000     0.105      
H        H      0.538216666667     0.491266666667     0.159250000000     0.105      
H        H      0.553483333333     0.527033333333     0.168350000000     0.105      
H        H      0.538950000000     0.532200000000     0.109100000000     0.105      
H        H      0.515683333333     0.498300000000     0.105900000000     0.105      
H        H      0.660616666667     0.532700000000     0.063450000000     0.105      
H        H      0.624750000000     0.524400000000     0.083650000000     0.105      
H        H      0.502200000000     0.584500000000     0.087600000000     0.105      
H        H      0.628850000000     0.601333333333     0.126300000000     0.105      
H        H      0.605266666667     0.567566666667     0.123600000000     0.105      
H        H      0.653500000000     0.566200000000     0.169100000000     0.105      
H        H      0.521750000000     0.573566666667     0.147500000000     0.105      
H        H      0.538216666667     0.342066666667     0.409250000000     0.105      
H        H      0.553483333333     0.639633333333     0.418350000000     0.105      
H        H      0.538950000000     0.634466666667     0.359100000000     0.105      
H        H      0.515683333333     0.335033333333     0.355900000000     0.105      
H        H      0.660616666667     0.633966666667     0.313450000000     0.105      
H        H      0.624750000000     0.642266666667     0.333650000000     0.105      
H        H      0.502200000000     0.582166666667     0.337600000000     0.105      
H        H      0.628850000000     0.565333333333     0.376300000000     0.105      
H        H      0.605266666667     0.599100000000     0.373600000000     0.105      
H        H      0.653500000000     0.600466666667     0.419100000000     0.105      
H        H      0.521750000000     0.593100000000     0.397500000000     0.105      
H        H      0.628450000000     0.508733333333     0.340750000000     0.105      
H        H      0.613183333333     0.472966666667     0.331650000000     0.105      
H        H      0.627716666667     0.467800000000     0.390900000000     0.105      
H        H      0.650983333333     0.501700000000     0.394100000000     0.105      
H        H      0.506050000000     0.467300000000     0.436550000000     0.105      
H        H      0.541916666667     0.475600000000     0.416350000000     0.105      
H        H      0.664466666667     0.415500000000     0.412400000000     0.105      
H        H      0.537816666667     0.398666666667     0.373700000000     0.105      
H        H      0.561400000000     0.432433333333     0.376400000000     0.105      
H        H      0.513166666667     0.433800000000     0.330900000000     0.105      
H        H      0.644916666667     0.426433333333     0.352500000000     0.105      
H        H      0.628450000000     0.657933333333     0.590750000000     0.105      
H        H      0.613183333333     0.360366666667     0.581650000000     0.105      
H        H      0.627716666667     0.365533333333     0.640900000000     0.105      
H        H      0.650983333333     0.664966666667     0.644100000000     0.105      
H        H      0.506050000000     0.366033333333     0.686550000000     0.105      
H        H      0.541916666667     0.357733333333     0.666350000000     0.105      
H        H      0.664466666667     0.417833333333     0.662400000000     0.105      
H        H      0.537816666667     0.434666666667     0.623700000000     0.105      
H        H      0.561400000000     0.400900000000     0.626400000000     0.105      
H        H      0.513166666667     0.399533333333     0.580900000000     0.105      
H        H      0.644916666667     0.406900000000     0.602500000000     0.105      
H        H      0.538216666667     0.491266666667     0.659250000000     0.105      
H        H      0.553483333333     0.527033333333     0.668350000000     0.105      
H        H      0.538950000000     0.532200000000     0.609100000000     0.105      
H        H      0.515683333333     0.498300000000     0.605900000000     0.105      
H        H      0.660616666667     0.532700000000     0.563450000000     0.105      
H        H      0.624750000000     0.524400000000     0.583650000000     0.105      
H        H      0.502200000000     0.584500000000     0.587600000000     0.105      
H        H      0.628850000000     0.601333333333     0.626300000000     0.105      
H        H      0.605266666667     0.567566666667     0.623600000000     0.105      
H        H      0.653500000000     0.566200000000     0.669100000000     0.105      
H        H      0.521750000000     0.573566666667     0.647500000000     0.105      
H        H      0.538216666667     0.342066666667     0.909250000000     0.105      
H        H      0.553483333333     0.639633333333     0.918350000000     0.105      
H        H      0.538950000000     0.634466666667     0.859100000000     0.105      
H        H      0.515683333333     0.335033333333     0.855900000000     0.105      
H        H      0.660616666667     0.633966666667     0.813450000000     0.105      
H        H      0.624750000000     0.642266666667     0.833650000000     0.105      
H        H      0.502200000000     0.582166666667     0.837600000000     0.105      
H        H      0.628850000000     0.565333333333     0.876300000000     0.105      
H        H      0.605266666667     0.599100000000     0.873600000000     0.105      
H        H      0.653500000000     0.600466666667     0.919100000000     0.105      
H        H      0.521750000000     0.593100000000     0.897500000000     0.105      
H        H      0.628450000000     0.508733333333     0.840750000000     0.105      
H        H      0.613183333333     0.472966666667     0.831650000000     0.105      
H        H      0.627716666667     0.467800000000     0.890900000000     0.105      
H        H      0.650983333333     0.501700000000     0.894100000000     0.105      
H        H      0.506050000000     0.467300000000     0.936550000000     0.105      
H        H      0.541916666667     0.475600000000     0.916350000000     0.105      
H        H      0.664466666667     0.415500000000     0.912400000000     0.105      
H        H      0.537816666667     0.398666666667     0.873700000000     0.105      
H        H      0.561400000000     0.432433333333     0.876400000000     0.105      
H        H      0.513166666667     0.433800000000     0.830900000000     0.105      
H        H      0.644916666667     0.426433333333     0.852500000000     0.105      
H        H      0.628450000000     0.991266666667     0.090750000000     0.105      
H        H      0.613183333333     0.693700000000     0.081650000000     0.105      
H        H      0.627716666667     0.698866666667     0.140900000000     0.105      
H        H      0.650983333333     0.998300000000     0.144100000000     0.105      
H        H      0.506050000000     0.699366666667     0.186550000000     0.105      
H        H      0.541916666667     0.691066666667     0.166350000000     0.105      
H        H      0.664466666667     0.751166666667     0.162400000000     0.105      
H        H      0.537816666667     0.768000000000     0.123700000000     0.105      
H        H      0.561400000000     0.734233333333     0.126400000000     0.105      
H        H      0.513166666667     0.732866666667     0.080900000000     0.105      
H        H      0.644916666667     0.740233333333     0.102500000000     0.105      
H        H      0.538216666667     0.824600000000     0.159250000000     0.105      
H        H      0.553483333333     0.860366666667     0.168350000000     0.105      
H        H      0.538950000000     0.865533333333     0.109100000000     0.105      
H        H      0.515683333333     0.831633333333     0.105900000000     0.105      
H        H      0.660616666667     0.866033333333     0.063450000000     0.105      
H        H      0.624750000000     0.857733333333     0.083650000000     0.105      
H        H      0.502200000000     0.917833333333     0.087600000000     0.105      
H        H      0.628850000000     0.934666666667     0.126300000000     0.105      
H        H      0.605266666667     0.900900000000     0.123600000000     0.105      
H        H      0.653500000000     0.899533333333     0.169100000000     0.105      
H        H      0.521750000000     0.906900000000     0.147500000000     0.105      
H        H      0.538216666667     0.675400000000     0.409250000000     0.105      
H        H      0.553483333333     0.972966666667     0.418350000000     0.105      
H        H      0.538950000000     0.967800000000     0.359100000000     0.105      
H        H      0.515683333333     0.668366666667     0.355900000000     0.105      
H        H      0.660616666667     0.967300000000     0.313450000000     0.105      
H        H      0.624750000000     0.975600000000     0.333650000000     0.105      
H        H      0.502200000000     0.915500000000     0.337600000000     0.105      
H        H      0.628850000000     0.898666666667     0.376300000000     0.105      
H        H      0.605266666667     0.932433333333     0.373600000000     0.105      
H        H      0.653500000000     0.933800000000     0.419100000000     0.105      
H        H      0.521750000000     0.926433333333     0.397500000000     0.105      
H        H      0.628450000000     0.842066666667     0.340750000000     0.105      
H        H      0.613183333333     0.806300000000     0.331650000000     0.105      
H        H      0.627716666667     0.801133333333     0.390900000000     0.105      
H        H      0.650983333333     0.835033333333     0.394100000000     0.105      
H        H      0.506050000000     0.800633333333     0.436550000000     0.105      
H        H      0.541916666667     0.808933333333     0.416350000000     0.105      
H        H      0.664466666667     0.748833333333     0.412400000000     0.105      
H        H      0.537816666667     0.732000000000     0.373700000000     0.105      
H        H      0.561400000000     0.765766666667     0.376400000000     0.105      
H        H      0.513166666667     0.767133333333     0.330900000000     0.105      
H        H      0.644916666667     0.759766666667     0.352500000000     0.105      
H        H      0.628450000000     0.991266666667     0.590750000000     0.105      
H        H      0.613183333333     0.693700000000     0.581650000000     0.105      
H        H      0.627716666667     0.698866666667     0.640900000000     0.105      
H        H      0.650983333333     0.998300000000     0.644100000000     0.105      
H        H      0.506050000000     0.699366666667     0.686550000000     0.105      
H        H      0.541916666667     0.691066666667     0.666350000000     0.105      
H        H      0.664466666667     0.751166666667     0.662400000000     0.105      
H        H      0.537816666667     0.768000000000     0.623700000000     0.105      
H        H      0.561400000000     0.734233333333     0.626400000000     0.105      
H        H      0.513166666667     0.732866666667     0.580900000000     0.105      
H        H      0.644916666667     0.740233333333     0.602500000000     0.105      
H        H      0.538216666667     0.824600000000     0.659250000000     0.105      
H        H      0.553483333333     0.860366666667     0.668350000000     0.105      
H        H      0.538950000000     0.865533333333     0.609100000000     0.105      
H        H      0.515683333333     0.831633333333     0.605900000000     0.105      
H        H      0.660616666667     0.866033333333     0.563450000000     0.105      
H        H      0.624750000000     0.857733333333     0.583650000000     0.105      
H        H      0.502200000000     0.917833333333     0.587600000000     0.105      
H        H      0.628850000000     0.934666666667     0.626300000000     0.105      
H        H      0.605266666667     0.900900000000     0.623600000000     0.105      
H        H      0.653500000000     0.899533333333     0.669100000000     0.105      
H        H      0.521750000000     0.906900000000     0.647500000000     0.105      
H        H      0.538216666667     0.675400000000     0.909250000000     0.105      
H        H      0.553483333333     0.972966666667     0.918350000000     0.105      
H        H      0.538950000000     0.967800000000     0.859100000000     0.105      
H        H      0.515683333333     0.668366666667     0.855900000000     0.105      
H        H      0.660616666667     0.967300000000     0.813450000000     0.105      
H        H      0.624750000000     0.975600000000     0.833650000000     0.105      
H        H      0.502200000000     0.915500000000     0.837600000000     0.105      
H        H      0.628850000000     0.898666666667     0.876300000000     0.105      
H        H      0.605266666667     0.932433333333     0.873600000000     0.105      
H        H      0.653500000000     0.933800000000     0.919100000000     0.105      
H        H      0.521750000000     0.926433333333     0.897500000000     0.105      
H        H      0.628450000000     0.842066666667     0.840750000000     0.105      
H        H      0.613183333333     0.806300000000     0.831650000000     0.105      
H        H      0.627716666667     0.801133333333     0.890900000000     0.105      
H        H      0.650983333333     0.835033333333     0.894100000000     0.105      
H        H      0.506050000000     0.800633333333     0.936550000000     0.105      
H        H      0.541916666667     0.808933333333     0.916350000000     0.105      
H        H      0.664466666667     0.748833333333     0.912400000000     0.105      
H        H      0.537816666667     0.732000000000     0.873700000000     0.105      
H        H      0.561400000000     0.765766666667     0.876400000000     0.105      
H        H      0.513166666667     0.767133333333     0.830900000000     0.105      
H        H      0.644916666667     0.759766666667     0.852500000000     0.105      
H        H      0.795116666667     0.324600000000     0.090750000000     0.105      
H        H      0.779850000000     0.027033333333     0.081650000000     0.105      
H        H      0.794383333333     0.032200000000     0.140900000000     0.105      
H        H      0.817650000000     0.331633333333     0.144100000000     0.105      
H        H      0.672716666667     0.032700000000     0.186550000000     0.105      
H        H      0.708583333333     0.024400000000     0.166350000000     0.105      
H        H      0.831133333333     0.084500000000     0.162400000000     0.105      
H        H      0.704483333333     0.101333333333     0.123700000000     0.105      
H        H      0.728066666667     0.067566666667     0.126400000000     0.105      
H        H      0.679833333333     0.066200000000     0.080900000000     0.105      
H        H      0.811583333333     0.073566666667     0.102500000000     0.105      
H        H      0.704883333333     0.157933333333     0.159250000000     0.105      
H        H      0.720150000000     0.193700000000     0.168350000000     0.105      
H        H      0.705616666667     0.198866666667     0.109100000000     0.105      
H        H      0.682350000000     0.164966666667     0.105900000000     0.105      
H        H      0.827283333333     0.199366666667     0.063450000000     0.105      
H        H      0.791416666667     0.191066666667     0.083650000000     0.105      
H        H      0.668866666667     0.251166666667     0.087600000000     0.105      
H        H      0.795516666667     0.268000000000     0.126300000000     0.105      
H        H      0.771933333333     0.234233333333     0.123600000000     0.105      
H        H      0.820166666667     0.232866666667     0.169100000000     0.105      
H        H      0.688416666667     0.240233333333     0.147500000000     0.105      
H        H      0.704883333333     0.008733333333     0.409250000000     0.105      
H        H      0.720150000000     0.306300000000     0.418350000000     0.105      
H        H      0.705616666667     0.301133333333     0.359100000000     0.105      
H        H      0.682350000000     0.001700000000     0.355900000000     0.105      
H        H      0.827283333333     0.300633333333     0.313450000000     0.105      
H        H      0.791416666667     0.308933333333     0.333650000000     0.105      
H        H      0.668866666667     0.248833333333     0.337600000000     0.105      
H        H      0.795516666667     0.232000000000     0.376300000000     0.105      
H        H      0.771933333333     0.265766666667     0.373600000000     0.105      
H        H      0.820166666667     0.267133333333     0.419100000000     0.105      
H        H      0.688416666667     0.259766666667     0.397500000000     0.105      
H        H      0.795116666667     0.175400000000     0.340750000000     0.105      
H        H      0.779850000000     0.139633333333     0.331650000000     0.105      
H        H      0.794383333333     0.134466666667     0.390900000000     0.105      
H        H      0.817650000000     0.168366666667     0.394100000000     0.105      
H        H      0.672716666667     0.133966666667     0.436550000000     0.105      
H        H      0.708583333333     0.142266666667     0.416350000000     0.105      
H        H      0.831133333333     0.082166666667     0.412400000000     0.105      
H        H      0.704483333333     0.065333333333     0.373700000000     0.105      
H        H      0.728066666667     0.099100000000     0.376400000000     0.105      
H        H      0.679833333333     0.100466666667     0.330900000000     0.105      
H        H      0.811583333333     0.093100000000     0.352500000000     0.105      
H        H      0.795116666667     0.324600000000     0.590750000000     0.105      
H        H      0.779850000000     0.027033333333     0.581650000000     0.105      
H        H      0.794383333333     0.032200000000     0.640900000000     0.105      
H        H      0.817650000000     0.331633333333     0.644100000000     0.105      
H        H      0.672716666667     0.032700000000     0.686550000000     0.105      
H        H      0.708583333333     0.024400000000     0.666350000000     0.105      
H        H      0.831133333333     0.084500000000     0.662400000000     0.105      
H        H      0.704483333333     0.101333333333     0.623700000000     0.105      
H        H      0.728066666667     0.067566666667     0.626400000000     0.105      
H        H      0.679833333333     0.066200000000     0.580900000000     0.105      
H        H      0.811583333333     0.073566666667     0.602500000000     0.105      
H        H      0.704883333333     0.157933333333     0.659250000000     0.105      
H        H      0.720150000000     0.193700000000     0.668350000000     0.105      
H        H      0.705616666667     0.198866666667     0.609100000000     0.105      
H        H      0.682350000000     0.164966666667     0.605900000000     0.105      
H        H      0.827283333333     0.199366666667     0.563450000000     0.105      
H        H      0.791416666667     0.191066666667     0.583650000000     0.105      
H        H      0.668866666667     0.251166666667     0.587600000000     0.105      
H        H      0.795516666667     0.268000000000     0.626300000000     0.105      
H        H      0.771933333333     0.234233333333     0.623600000000     0.105      
H        H      0.820166666667     0.232866666667     0.669100000000     0.105      
H        H      0.688416666667     0.240233333333     0.647500000000     0.105      
H        H      0.704883333333     0.008733333333     0.909250000000     0.105      
H        H      0.720150000000     0.306300000000     0.918350000000     0.105      
H        H      0.705616666667     0.301133333333     0.859100000000     0.105      
H        H      0.682350000000     0.001700000000     0.855900000000     0.105      
H        H      0.827283333333     0.300633333333     0.813450000000     0.105      
H        H      0.791416666667     0.308933333333     0.833650000000     0.105      
H        H      0.668866666667     0.248833333333     0.837600000000     0.105      
H        H      0.795516666667     0.232000000000     0.876300000000     0.105      
H        H      0.771933333333     0.265766666667     0.873600000000     0.105      
H        H      0.820166666667     0.267133333333     0.919100000000     0.105      
H        H      0.688416666667     0.259766666667     0.897500000000     0.105      
H        H      0.795116666667     0.175400000000     0.840750000000     0.105      
H        H      0.779850000000     0.139633333333     0.831650000000     0.105      
H        H      0.794383333333     0.134466666667     0.890900000000     0.105      
H        H      0.817650000000     0.168366666667     0.894100000000     0.105      
H        H      0.672716666667     0.133966666667     0.936550000000     0.105      
H        H      0.708583333333     0.142266666667     0.916350000000     0.105      
H        H      0.831133333333     0.082166666667     0.912400000000     0.105      
H        H      0.704483333333     0.065333333333     0.873700000000     0.105      
H        H      0.728066666667     0.099100000000     0.876400000000     0.105      
H        H      0.679833333333     0.100466666667     0.830900000000     0.105      
H        H      0.811583333333     0.093100000000     0.852500000000     0.105      
H        H      0.795116666667     0.657933333333     0.090750000000     0.105      
H        H      0.779850000000     0.360366666667     0.081650000000     0.105      
H        H      0.794383333333     0.365533333333     0.140900000000     0.105      
H        H      0.817650000000     0.664966666667     0.144100000000     0.105      
H        H      0.672716666667     0.366033333333     0.186550000000     0.105      
H        H      0.708583333333     0.357733333333     0.166350000000     0.105      
H        H      0.831133333333     0.417833333333     0.162400000000     0.105      
H        H      0.704483333333     0.434666666667     0.123700000000     0.105      
H        H      0.728066666667     0.400900000000     0.126400000000     0.105      
H        H      0.679833333333     0.399533333333     0.080900000000     0.105      
H        H      0.811583333333     0.406900000000     0.102500000000     0.105      
H        H      0.704883333333     0.491266666667     0.159250000000     0.105      
H        H      0.720150000000     0.527033333333     0.168350000000     0.105      
H        H      0.705616666667     0.532200000000     0.109100000000     0.105      
H        H      0.682350000000     0.498300000000     0.105900000000     0.105      
H        H      0.827283333333     0.532700000000     0.063450000000     0.105      
H        H      0.791416666667     0.524400000000     0.083650000000     0.105      
H        H      0.668866666667     0.584500000000     0.087600000000     0.105      
H        H      0.795516666667     0.601333333333     0.126300000000     0.105      
H        H      0.771933333333     0.567566666667     0.123600000000     0.105      
H        H      0.820166666667     0.566200000000     0.169100000000     0.105      
H        H      0.688416666667     0.573566666667     0.147500000000     0.105      
H        H      0.704883333333     0.342066666667     0.409250000000     0.105      
H        H      0.720150000000     0.639633333333     0.418350000000     0.105      
H        H      0.705616666667     0.634466666667     0.359100000000     0.105      
H        H      0.682350000000     0.335033333333     0.355900000000     0.105      
H        H      0.827283333333     0.633966666667     0.313450000000     0.105      
H        H      0.791416666667     0.642266666667     0.333650000000     0.105      
H        H      0.668866666667     0.582166666667     0.337600000000     0.105      
H        H      0.795516666667     0.565333333333     0.376300000000     0.105      
H        H      0.771933333333     0.599100000000     0.373600000000     0.105      
H        H      0.820166666667     0.600466666667     0.419100000000     0.105      
H        H      0.688416666667     0.593100000000     0.397500000000     0.105      
H        H      0.795116666667     0.508733333333     0.340750000000     0.105      
H        H      0.779850000000     0.472966666667     0.331650000000     0.105      
H        H      0.794383333333     0.467800000000     0.390900000000     0.105      
H        H      0.817650000000     0.501700000000     0.394100000000     0.105      
H        H      0.672716666667     0.467300000000     0.436550000000     0.105      
H        H      0.708583333333     0.475600000000     0.416350000000     0.105      
H        H      0.831133333333     0.415500000000     0.412400000000     0.105      
H        H      0.704483333333     0.398666666667     0.373700000000     0.105      
H        H      0.728066666667     0.432433333333     0.376400000000     0.105      
H        H      0.679833333333     0.433800000000     0.330900000000     0.105      
H        H      0.811583333333     0.426433333333     0.352500000000     0.105      
H        H      0.795116666667     0.657933333333     0.590750000000     0.105      
H        H      0.779850000000     0.360366666667     0.581650000000     0.105      
H        H      0.794383333333     0.365533333333     0.640900000000     0.105      
H        H      0.817650000000     0.664966666667     0.644100000000     0.105      
H        H      0.672716666667     0.366033333333     0.686550000000     0.105      
H        H      0.708583333333     0.357733333333     0.666350000000     0.105      
H        H      0.831133333333     0.417833333333     0.662400000000     0.105      
H        H      0.704483333333     0.434666666667     0.623700000000     0.105      
H        H      0.728066666667     0.400900000000     0.626400000000     0.105      
H        H      0.679833333333     0.399533333333     0.580900000000     0.105      
H        H      0.811583333333     0.406900000000     0.602500000000     0.105      
H        H      0.704883333333     0.491266666667     0.659250000000     0.105      
H        H      0.720150000000     0.527033333333     0.668350000000     0.105      
H        H      0.705616666667     0.532200000000     0.609100000000     0.105      
H        H      0.682350000000     0.498300000000     0.605900000000     0.105      
H        H      0.827283333333     0.532700000000     0.563450000000     0.105      
H        H      0.791416666667     0.524400000000     0.583650000000     0.105      
H        H      0.668866666667     0.584500000000     0.587600000000     0.105      
H        H      0.795516666667     0.601333333333     0.626300000000     0.105      
H        H      0.771933333333     0.567566666667     0.623600000000     0.105      
H        H      0.820166666667     0.566200000000     0.669100000000     0.105      
H        H      0.688416666667     0.573566666667     0.647500000000     0.105      
H        H      0.704883333333     0.342066666667     0.909250000000     0.105      
H        H      0.720150000000     0.639633333333     0.918350000000     0.105      
H        H      0.705616666667     0.634466666667     0.859100000000     0.105      
H        H      0.682350000000     0.335033333333     0.855900000000     0.105      
H        H      0.827283333333     0.633966666667     0.813450000000     0.105      
H        H      0.791416666667     0.642266666667     0.833650000000     0.105      
H        H      0.668866666667     0.582166666667     0.837600000000     0.105      
H        H      0.795516666667     0.565333333333     0.876300000000     0.105      
H        H      0.771933333333     0.599100000000     0.873600000000     0.105      
H        H      0.820166666667     0.600466666667     0.919100000000     0.105      
H        H      0.688416666667     0.593100000000     0.897500000000     0.105      
H        H      0.795116666667     0.508733333333     0.840750000000     0.105      
H        H      0.779850000000     0.472966666667     0.831650000000     0.105      
H        H      0.794383333333     0.467800000000     0.890900000000     0.105      
H        H      0.817650000000     0.501700000000     0.894100000000     0.105      
H        H      0.672716666667     0.467300000000     0.936550000000     0.105      
H        H      0.708583333333     0.475600000000     0.916350000000     0.105      
H        H      0.831133333333     0.415500000000     0.912400000000     0.105      
H        H      0.704483333333     0.398666666667     0.873700000000     0.105      
H        H      0.728066666667     0.432433333333     0.876400000000     0.105      
H        H      0.679833333333     0.433800000000     0.830900000000     0.105      
H        H      0.811583333333     0.426433333333     0.852500000000     0.105      
H        H      0.795116666667     0.991266666667     0.090750000000     0.105      
H        H      0.779850000000     0.693700000000     0.081650000000     0.105      
H        H      0.794383333333     0.698866666667     0.140900000000     0.105      
H        H      0.817650000000     0.998300000000     0.144100000000     0.105      
H        H      0.672716666667     0.699366666667     0.186550000000     0.105      
H        H      0.708583333333     0.691066666667     0.166350000000     0.105      
H        H      0.831133333333     0.751166666667     0.162400000000     0.105      
H        H      0.704483333333     0.768000000000     0.123700000000     0.105      
H        H      0.728066666667     0.734233333333     0.126400000000     0.105      
H        H      0.679833333333     0.732866666667     0.080900000000     0.105      
H        H      0.811583333333     0.740233333333     0.102500000000     0.105      
H        H      0.704883333333     0.824600000000     0.159250000000     0.105      
H        H      0.720150000000     0.860366666667     0.168350000000     0.105      
H        H      0.705616666667     0.865533333333     0.109100000000     0.105      
H        H      0.682350000000     0.831633333333     0.105900000000     0.105      
H        H      0.827283333333     0.866033333333     0.063450000000     0.105      
H        H      0.791416666667     0.857733333333     0.083650000000     0.105      
H        H      0.668866666667     0.917833333333     0.087600000000     0.105      
H        H      0.795516666667     0.934666666667     0.126300000000     0.105      
H        H      0.771933333333     0.900900000000     0.123600000000     0.105      
H        H      0.820166666667     0.899533333333     0.169100000000     0.105      
H        H      0.688416666667     0.906900000000     0.147500000000     0.105      
H        H      0.704883333333     0.675400000000     0.409250000000     0.105      
H        H      0.720150000000     0.972966666667     0.418350000000     0.105      
H        H      0.705616666667     0.967800000000     0.359100000000     0.105      
H        H      0.682350000000     0.668366666667     0.355900000000     0.105      
H        H      0.827283333333     0.967300000000     0.313450000000     0.105      
H        H      0.791416666667     0.975600000000     0.333650000000     0.105      
H        H      0.668866666667     0.915500000000     0.337600000000     0.105      
H        H      0.795516666667     0.898666666667     0.376300000000     0.105      
H        H      0.771933333333     0.932433333333     0.373600000000     0.105      
H        H      0.820166666667     0.933800000000     0.419100000000     0.105      
H        H      0.688416666667     0.926433333333     0.397500000000     0.105      
H        H      0.795116666667     0.842066666667     0.340750000000     0.105      
H        H      0.779850000000     0.806300000000     0.331650000000     0.105      
H        H      0.794383333333     0.801133333333     0.390900000000     0.105      
H        H      0.817650000000     0.835033333333     0.394100000000     0.105      
H        H      0.672716666667     0.800633333333     0.436550000000     0.105      
H        H      0.708583333333     0.808933333333     0.416350000000     0.105      
H        H      0.831133333333     0.748833333333     0.412400000000     0.105      
H        H      0.704483333333     0.732000000000     0.373700000000     0.105      
H        H      0.728066666667     0.765766666667     0.376400000000     0.105      
H        H      0.679833333333     0.767133333333     0.330900000000     0.105      
H        H      0.811583333333     0.759766666667     0.352500000000     0.105      
H        H      0.795116666667     0.991266666667     0.590750000000     0.105      
H        H      0.779850000000     0.693700000000     0.581650000000     0.105      
H        H      0.794383333333     0.698866666667     0.640900000000     0.105      
H        H      0.817650000000     0.998300000000     0.644100000000     0.105      
H        H      0.672716666667     0.699366666667     0.686550000000     0.105      
H        H      0.708583333333     0.691066666667     0.666350000000     0.105      
H        H      0.831133333333     0.751166666667     0.662400000000     0.105      
H        H      0.704483333333     0.768000000000     0.623700000000     0.105      
H        H      0.728066666667     0.734233333333     0.626400000000     0.105      
H        H      0.679833333333     0.732866666667     0.580900000000     0.105      
H        H      0.811583333333     0.740233333333     0.602500000000     0.105      
H        H      0.704883333333     0.824600000000     0.659250000000     0.105      
H        H      0.720150000000     0.860366666667     0.668350000000     0.105      
H        H      0.705616666667     0.865533333333     0.609100000000     0.105      
H        H      0.682350000000     0.831633333333     0.605900000000     0.105      
H        H      0.827283333333     0.866033333333     0.563450000000     0.105      
H        H      0.791416666667     0.857733333333     0.583650000000     0.105      
H        H      0.668866666667     0.917833333333     0.587600000000     0.105      
H        H      0.795516666667     0.934666666667     0.626300000000     0.105      
H        H      0.771933333333     0.900900000000     0.623600000000     0.105      
H        H      0.820166666667     0.899533333333     0.669100000000     0.105      
H        H      0.688416666667     0.906900000000     0.647500000000     0.105      
H        H      0.704883333333     0.675400000000     0.909250000000     0.105      
H        H      0.720150000000     0.972966666667     0.918350000000     0.105      
H        H      0.705616666667     0.967800000000     0.859100000000     0.105      
H        H      0.682350000000     0.668366666667     0.855900000000     0.105      
H        H      0.827283333333     0.967300000000     0.813450000000     0.105      
H        H      0.791416666667     0.975600000000     0.833650000000     0.105      
H        H      0.668866666667     0.915500000000     0.837600000000     0.105      
H        H      0.795516666667     0.898666666667     0.876300000000     0.105      
H        H      0.771933333333     0.932433333333     0.873600000000     0.105      
H        H      0.820166666667     0.933800000000     0.919100000000     0.105      
H        H      0.688416666667     0.926433333333     0.897500000000     0.105      
H        H      0.795116666667     0.842066666667     0.840750000000     0.105      
H        H      0.779850000000     0.806300000000     0.831650000000     0.105      
H        H      0.794383333333     0.801133333333     0.890900000000     0.105      
H        H      0.817650000000     0.835033333333     0.894100000000     0.105      
H        H      0.672716666667     0.800633333333     0.936550000000     0.105      
H        H      0.708583333333     0.808933333333     0.916350000000     0.105      
H        H      0.831133333333     0.748833333333     0.912400000000     0.105      
H        H      0.704483333333     0.732000000000     0.873700000000     0.105      
H        H      0.728066666667     0.765766666667     0.876400000000     0.105      
H        H      0.679833333333     0.767133333333     0.830900000000     0.105      
H        H      0.811583333333     0.759766666667     0.852500000000     0.105      
H        H      0.961783333333     0.324600000000     0.090750000000     0.105      
H        H      0.946516666667     0.027033333333     0.081650000000     0.105      
H        H      0.961050000000     0.032200000000     0.140900000000     0.105      
H        H      0.984316666667     0.331633333333     0.144100000000     0.105      
H        H      0.839383333333     0.032700000000     0.186550000000     0.105      
H        H      0.875250000000     0.024400000000     0.166350000000     0.105      
H        H      0.997800000000     0.084500000000     0.162400000000     0.105      
H        H      0.871150000000     0.101333333333     0.123700000000     0.105      
H        H      0.894733333333     0.067566666667     0.126400000000     0.105      
H        H      0.846500000000     0.066200000000     0.080900000000     0.105      
H        H      0.978250000000     0.073566666667     0.102500000000     0.105      
H        H      0.871550000000     0.157933333333     0.159250000000     0.105      
H        H      0.886816666667     0.193700000000     0.168350000000     0.105      
H        H      0.872283333333     0.198866666667     0.109100000000     0.105      
H        H      0.849016666667     0.164966666667     0.105900000000     0.105      
H        H      0.993950000000     0.199366666667     0.063450000000     0.105      
H        H      0.958083333333     0.191066666667     0.083650000000     0.105      
H        H      0.835533333333     0.251166666667     0.087600000000     0.105      
H        H      0.962183333333     0.268000000000     0.126300000000     0.105      
H        H      0.938600000000     0.234233333333     0.123600000000     0.105      
H        H      0.986833333333     0.232866666667     0.169100000000     0.105      
H        H      0.855083333333     0.240233333333     0.147500000000     0.105      
H        H      0.871550000000     0.008733333333     0.409250000000     0.105      
H        H      0.886816666667     0.306300000000     0.418350000000     0.105      
H        H      0.872283333333     0.301133333333     0.359100000000     0.105      
H        H      0.849016666667     0.001700000000     0.355900000000     0.105      
H        H      0.993950000000     0.300633333333     0.313450000000     0.105      
H        H      0.958083333333     0.308933333333     0.333650000000     0.105      
H        H      0.835533333333     0.248833333333     0.337600000000     0.105      
H        H      0.962183333333     0.232000000000     0.376300000000     0.105      
H        H      0.938600000000     0.265766666667     0.373600000000     0.105      
H        H      0.986833333333     0.267133333333     0.419100000000     0.105      
H        H      0.855083333333     0.259766666667     0.397500000000     0.105      
H        H      0.961783333333     0.175400000000     0.340750000000     0.105      
H        H      0.946516666667     0.139633333333     0.331650000000     0.105      
H        H      0.961050000000     0.134466666667     0.390900000000     0.105      
H        H      0.984316666667     0.168366666667     0.394100000000     0.105      
H        H      0.839383333333     0.133966666667     0.436550000000     0.105      
H        H      0.875250000000     0.142266666667     0.416350000000     0.105      
H        H      0.997800000000     0.082166666667     0.412400000000     0.105      
H        H      0.871150000000     0.065333333333     0.373700000000     0.105      
H        H      0.894733333333     0.099100000000     0.376400000000     0.105      
H        H      0.846500000000     0.100466666667     0.330900000000     0.105      
H        H      0.978250000000     0.093100000000     0.352500000000     0.105      
H        H      0.961783333333     0.324600000000     0.590750000000     0.105      
H        H      0.946516666667     0.027033333333     0.581650000000     0.105      
H        H      0.961050000000     0.032200000000     0.640900000000     0.105      
H        H      0.984316666667     0.331633333333     0.644100000000     0.105      
H        H      0.839383333333     0.032700000000     0.686550000000     0.105      
H        H      0.875250000000     0.024400000000     0.666350000000     0.105      
H        H      0.997800000000     0.084500000000     0.662400000000     0.105      
H        H      0.871150000000     0.101333333333     0.623700000000     0.105      
H        H      0.894733333333     0.067566666667     0.626400000000     0.105      
H        H      0.846500000000     0.066200000000     0.580900000000     0.105      
H        H      0.978250000000     0.073566666667     0.602500000000     0.105      
H        H      0.871550000000     0.157933333333     0.659250000000     0.105      
H        H      0.886816666667     0.193700000000     0.668350000000     0.105      
H        H      0.872283333333     0.198866666667     0.609100000000     0.105      
H        H      0.849016666667     0.164966666667     0.605900000000     0.105      
H        H      0.993950000000     0.199366666667     0.563450000000     0.105      
H        H      0.958083333333     0.191066666667     0.583650000000     0.105      
H        H      0.835533333333     0.251166666667     0.587600000000     0.105      
H        H      0.962183333333     0.268000000000     0.626300000000     0.105      
H        H      0.938600000000     0.234233333333     0.623600000000     0.105      
H        H      0.986833333333     0.232866666667     0.669100000000     0.105      
H        H      0.855083333333     0.240233333333     0.647500000000     0.105      
H        H      0.871550000000     0.008733333333     0.909250000000     0.105      
H        H      0.886816666667     0.306300000000     0.918350000000     0.105      
H        H      0.872283333333     0.301133333333     0.859100000000     0.105      
H        H      0.849016666667     0.001700000000     0.855900000000     0.105      
H        H      0.993950000000     0.300633333333     0.813450000000     0.105      
H        H      0.958083333333     0.308933333333     0.833650000000     0.105      
H        H      0.835533333333     0.248833333333     0.837600000000     0.105      
H        H      0.962183333333     0.232000000000     0.876300000000     0.105      
H        H      0.938600000000     0.265766666667     0.873600000000     0.105      
H        H      0.986833333333     0.267133333333     0.919100000000     0.105      
H        H      0.855083333333     0.259766666667     0.897500000000     0.105      
H        H      0.961783333333     0.175400000000     0.840750000000     0.105      
H        H      0.946516666667     0.139633333333     0.831650000000     0.105      
H        H      0.961050000000     0.134466666667     0.890900000000     0.105      
H        H      0.984316666667     0.168366666667     0.894100000000     0.105      
H        H      0.839383333333     0.133966666667     0.936550000000     0.105      
H        H      0.875250000000     0.142266666667     0.916350000000     0.105      
H        H      0.997800000000     0.082166666667     0.912400000000     0.105      
H        H      0.871150000000     0.065333333333     0.873700000000     0.105      
H        H      0.894733333333     0.099100000000     0.876400000000     0.105      
H        H      0.846500000000     0.100466666667     0.830900000000     0.105      
H        H      0.978250000000     0.093100000000     0.852500000000     0.105      
H        H      0.961783333333     0.657933333333     0.090750000000     0.105      
H        H      0.946516666667     0.360366666667     0.081650000000     0.105      
H        H      0.961050000000     0.365533333333     0.140900000000     0.105      
H        H      0.984316666667     0.664966666667     0.144100000000     0.105      
H        H      0.839383333333     0.366033333333     0.186550000000     0.105      
H        H      0.875250000000     0.357733333333     0.166350000000     0.105      
H        H      0.997800000000     0.417833333333     0.162400000000     0.105      
H        H      0.871150000000     0.434666666667     0.123700000000     0.105      
H        H      0.894733333333     0.400900000000     0.126400000000     0.105      
H        H      0.846500000000     0.399533333333     0.080900000000     0.105      
H        H      0.978250000000     0.406900000000     0.102500000000     0.105      
H        H      0.871550000000     0.491266666667     0.159250000000     0.105      
H        H      0.886816666667     0.527033333333     0.168350000000     0.105      
H        H      0.872283333333     0.532200000000     0.109100000000     0.105      
H        H      0.849016666667     0.498300000000     0.105900000000     0.105      
H        H      0.993950000000     0.532700000000     0.063450000000     0.105      
H        H      0.958083333333     0.524400000000     0.083650000000     0.105      
H        H      0.835533333333     0.584500000000     0.087600000000     0.105      
H        H      0.962183333333     0.601333333333     0.126300000000     0.105      
H        H      0.938600000000     0.567566666667     0.123600000000     0.105      
H        H      0.986833333333     0.566200000000     0.169100000000     0.105      
H        H      0.855083333333     0.573566666667     0.147500000000     0.105      
H        H      0.871550000000     0.342066666667     0.409250000000     0.105      
H        H      0.886816666667     0.639633333333     0.418350000000     0.105      
H        H      0.872283333333     0.634466666667     0.359100000000     0.105      
H        H      0.849016666667     0.335033333333     0.355900000000     0.105      
H        H      0.993950000000     0.633966666667     0.313450000000     0.105      
H        H      0.958083333333     0.642266666667     0.333650000000     0.105      
H        H      0.835533333333     0.582166666667     0.337600000000     0.105      
H        H      0.962183333333     0.565333333333     0.376300000000     0.105      
H        H      0.938600000000     0.599100000000     0.373600000000     0.105      
H        H      0.986833333333     0.600466666667     0.419100000000     0.105      
H        H      0.855083333333     0.593100000000     0.397500000000     0.105      
H        H      0.961783333333     0.508733333333     0.340750000000     0.105      
H        H      0.946516666667     0.472966666667     0.331650000000     0.105      
H        H      0.961050000000     0.467800000000     0.390900000000     0.105      
H        H      0.984316666667     0.501700000000     0.394100000000     0.105      
H        H      0.839383333333     0.467300000000     0.436550000000     0.105      
H        H      0.875250000000     0.475600000000     0.416350000000     0.105      
H        H      0.997800000000     0.415500000000     0.412400000000     0.105      
H        H      0.871150000000     0.398666666667     0.373700000000     0.105      
H        H      0.894733333333     0.432433333333     0.376400000000     0.105      
H        H      0.846500000000     0.433800000000     0.330900000000     0.105      
H        H      0.978250000000     0.426433333333     0.352500000000     0.105      
H        H      0.961783333333     0.657933333333     0.590750000000     0.105      
H        H      0.946516666667     0.360366666667     0.581650000000     0.105      
H        H      0.961050000000     0.365533333333     0.640900000000     0.105      
H        H      0.984316666667     0.664966666667     0.644100000000     0.105      
H        H      0.839383333333     0.366033333333     0.686550000000     0.105      
H        H      0.875250000000     0.357733333333     0.666350000000     0.105      
H        H      0.997800000000     0.417833333333     0.662400000000     0.105      
H        H      0.871150000000     0.434666666667     0.623700000000     0.105      
H        H      0.894733333333     0.400900000000     0.626400000000     0.105      
H        H      0.846500000000     0.399533333333     0.580900000000     0.105      
H        H      0.978250000000     0.406900000000     0.602500000000     0.105      
H        H      0.871550000000     0.491266666667     0.659250000000     0.105      
H        H      0.886816666667     0.527033333333     0.668350000000     0.105      
H        H      0.872283333333     0.532200000000     0.609100000000     0.105      
H        H      0.849016666667     0.498300000000     0.605900000000     0.105      
H        H      0.993950000000     0.532700000000     0.563450000000     0.105      
H        H      0.958083333333     0.524400000000     0.583650000000     0.105      
H        H      0.835533333333     0.584500000000     0.587600000000     0.105      
H        H      0.962183333333     0.601333333333     0.626300000000     0.105      
H        H      0.938600000000     0.567566666667     0.623600000000     0.105      
H        H      0.986833333333     0.566200000000     0.669100000000     0.105      
H        H      0.855083333333     0.573566666667     0.647500000000     0.105      
H        H      0.871550000000     0.342066666667     0.909250000000     0.105      
H        H      0.886816666667     0.639633333333     0.918350000000     0.105      
H        H      0.872283333333     0.634466666667     0.859100000000     0.105      
H        H      0.849016666667     0.335033333333     0.855900000000     0.105      
H        H      0.993950000000     0.633966666667     0.813450000000     0.105      
H        H      0.958083333333     0.642266666667     0.833650000000     0.105      
H        H      0.835533333333     0.582166666667     0.837600000000     0.105      
H        H      0.962183333333     0.565333333333     0.876300000000     0.105      
H        H      0.938600000000     0.599100000000     0.873600000000     0.105      
H        H      0.986833333333     0.600466666667     0.919100000000     0.105      
H        H      0.855083333333     0.593100000000     0.897500000000     0.105      
H        H      0.961783333333     0.508733333333     0.840750000000     0.105      
H        H      0.946516666667     0.472966666667     0.831650000000     0.105      
H        H      0.961050000000     0.467800000000     0.890900000000     0.105      
H        H      0.984316666667     0.501700000000     0.894100000000     0.105      
H        H      0.839383333333     0.467300000000     0.936550000000     0.105      
H        H      0.875250000000     0.475600000000     0.916350000000     0.105      
H        H      0.997800000000     0.415500000000     0.912400000000     0.105      
H        H      0.871150000000     0.398666666667     0.873700000000     0.105      
H        H      0.894733333333     0.432433333333     0.876400000000     0.105      
H        H      0.846500000000     0.433800000000     0.830900000000     0.105      
H        H      0.978250000000     0.426433333333     0.852500000000     0.105      
H        H      0.961783333333     0.991266666667     0.090750000000     0.105      
H        H      0.946516666667     0.693700000000     0.081650000000     0.105      
H        H      0.961050000000     0.698866666667     0.140900000000     0.105      
H        H      0.984316666667     0.998300000000     0.144100000000     0.105      
H        H      0.839383333333     0.699366666667     0.186550000000     0.105      
H        H      0.875250000000     0.691066666667     0.166350000000     0.105      
H        H      0.997800000000     0.751166666667     0.162400000000     0.105      
H        H      0.871150000000     0.768000000000     0.123700000000     0.105      
H        H      0.894733333333     0.734233333333     0.126400000000     0.105      
H        H      0.846500000000     0.732866666667     0.080900000000     0.105      
H        H      0.978250000000     0.740233333333     0.102500000000     0.105      
H        H      0.871550000000     0.824600000000     0.159250000000     0.105      
H        H      0.886816666667     0.860366666667     0.168350000000     0.105      
H        H      0.872283333333     0.865533333333     0.109100000000     0.105      
H        H      0.849016666667     0.831633333333     0.105900000000     0.105      
H        H      0.993950000000     0.866033333333     0.063450000000     0.105      
H        H      0.958083333333     0.857733333333     0.083650000000     0.105      
H        H      0.835533333333     0.917833333333     0.087600000000     0.105      
H        H      0.962183333333     0.934666666667     0.126300000000     0.105      
H        H      0.938600000000     0.900900000000     0.123600000000     0.105      
H        H      0.986833333333     0.899533333333     0.169100000000     0.105      
H        H      0.855083333333     0.906900000000     0.147500000000     0.105      
H        H      0.871550000000     0.675400000000     0.409250000000     0.105      
H        H      0.886816666667     0.972966666667     0.418350000000     0.105      
H        H      0.872283333333     0.967800000000     0.359100000000     0.105      
H        H      0.849016666667     0.668366666667     0.355900000000     0.105      
H        H      0.993950000000     0.967300000000     0.313450000000     0.105      
H        H      0.958083333333     0.975600000000     0.333650000000     0.105      
H        H      0.835533333333     0.915500000000     0.337600000000     0.105      
H        H      0.962183333333     0.898666666667     0.376300000000     0.105      
H        H      0.938600000000     0.932433333333     0.373600000000     0.105      
H        H      0.986833333333     0.933800000000     0.419100000000     0.105      
H        H      0.855083333333     0.926433333333     0.397500000000     0.105      
H        H      0.961783333333     0.842066666667     0.340750000000     0.105      
H        H      0.946516666667     0.806300000000     0.331650000000     0.105      
H        H      0.961050000000     0.801133333333     0.390900000000     0.105      
H        H      0.984316666667     0.835033333333     0.394100000000     0.105      
H        H      0.839383333333     0.800633333333     0.436550000000     0.105      
H        H      0.875250000000     0.808933333333     0.416350000000     0.105      
H        H      0.997800000000     0.748833333333     0.412400000000     0.105      
H        H      0.871150000000     0.732000000000     0.373700000000     0.105      
H        H      0.894733333333     0.765766666667     0.376400000000     0.105      
H        H      0.846500000000     0.767133333333     0.330900000000     0.105      
H        H      0.978250000000     0.759766666667     0.352500000000     0.105      
H        H      0.961783333333     0.991266666667     0.590750000000     0.105      
H        H      0.946516666667     0.693700000000     0.581650000000     0.105      
H        H      0.961050000000     0.698866666667     0.640900000000     0.105      
H        H      0.984316666667     0.998300000000     0.644100000000     0.105      
H        H      0.839383333333     0.699366666667     0.686550000000     0.105      
H        H      0.875250000000     0.691066666667     0.666350000000     0.105      
H        H      0.997800000000     0.751166666667     0.662400000000     0.105      
H        H      0.871150000000     0.768000000000     0.623700000000     0.105      
H        H      0.894733333333     0.734233333333     0.626400000000     0.105      
H        H      0.846500000000     0.732866666667     0.580900000000     0.105      
H        H      0.978250000000     0.740233333333     0.602500000000     0.105      
H        H      0.871550000000     0.824600000000     0.659250000000     0.105      
H        H      0.886816666667     0.860366666667     0.668350000000     0.105      
H        H      0.872283333333     0.865533333333     0.609100000000     0.105      
H        H      0.849016666667     0.831633333333     0.605900000000     0.105      
H        H      0.993950000000     0.866033333333     0.563450000000     0.105      
H        H      0.958083333333     0.857733333333     0.583650000000     0.105      
H        H      0.835533333333     0.917833333333     0.587600000000     0.105      
H        H      0.962183333333     0.934666666667     0.626300000000     0.105      
H        H      0.938600000000     0.900900000000     0.623600000000     0.105      
H        H      0.986833333333     0.899533333333     0.669100000000     0.105      
H        H      0.855083333333     0.906900000000     0.647500000000     0.105      
H        H      0.871550000000     0.675400000000     0.909250000000     0.105      
H        H      0.886816666667     0.972966666667     0.918350000000     0.105      
H        H      0.872283333333     0.967800000000     0.859100000000     0.105      
H        H      0.849016666667     0.668366666667     0.855900000000     0.105      
H        H      0.993950000000     0.967300000000     0.813450000000     0.105      
H        H      0.958083333333     0.975600000000     0.833650000000     0.105      
H        H      0.835533333333     0.915500000000     0.837600000000     0.105      
H        H      0.962183333333     0.898666666667     0.876300000000     0.105      
H        H      0.938600000000     0.932433333333     0.873600000000     0.105      
H        H      0.986833333333     0.933800000000     0.919100000000     0.105      
H        H      0.855083333333     0.926433333333     0.897500000000     0.105      
H        H      0.961783333333     0.842066666667     0.840750000000     0.105      
H        H      0.946516666667     0.806300000000     0.831650000000     0.105      
H        H      0.961050000000     0.801133333333     0.890900000000     0.105      
H        H      0.984316666667     0.835033333333     0.894100000000     0.105      
H        H      0.839383333333     0.800633333333     0.936550000000     0.105      
H        H      0.875250000000     0.808933333333     0.916350000000     0.105      
H        H      0.997800000000     0.748833333333     0.912400000000     0.105      
H        H      0.871150000000     0.732000000000     0.873700000000     0.105      
H        H      0.894733333333     0.765766666667     0.876400000000     0.105      
H        H      0.846500000000     0.767133333333     0.830900000000     0.105      
H        H      0.978250000000     0.759766666667     0.852500000000     0.105      
N        N      0.000350000000     0.026633333333     0.108250000000     0.085      
N        N      0.166316666667     0.193300000000     0.141750000000     0.085      
N        N      0.166316666667     0.306700000000     0.391750000000     0.085      
N        N      0.000350000000     0.140033333333     0.358250000000     0.085      
N        N      0.000350000000     0.026633333333     0.608250000000     0.085      
N        N      0.166316666667     0.193300000000     0.641750000000     0.085      
N        N      0.166316666667     0.306700000000     0.891750000000     0.085      
N        N      0.000350000000     0.140033333333     0.858250000000     0.085      
N        N      0.000350000000     0.359966666667     0.108250000000     0.085      
N        N      0.166316666667     0.526633333333     0.141750000000     0.085      
N        N      0.166316666667     0.640033333333     0.391750000000     0.085      
N        N      0.000350000000     0.473366666667     0.358250000000     0.085      
N        N      0.000350000000     0.359966666667     0.608250000000     0.085      
N        N      0.166316666667     0.526633333333     0.641750000000     0.085      
N        N      0.166316666667     0.640033333333     0.891750000000     0.085      
N        N      0.000350000000     0.473366666667     0.858250000000     0.085      
N        N      0.000350000000     0.693300000000     0.108250000000     0.085      
N        N      0.166316666667     0.859966666667     0.141750000000     0.085      
N        N      0.166316666667     0.973366666667     0.391750000000     0.085      
N        N      0.000350000000     0.806700000000     0.358250000000     0.085      
N        N      0.000350000000     0.693300000000     0.608250000000     0.085      
N        N      0.166316666667     0.859966666667     0.641750000000     0.085      
N        N      0.166316666667     0.973366666667     0.891750000000     0.085      
N        N      0.000350000000     0.806700000000     0.858250000000     0.085      
N        N      0.167016666667     0.026633333333     0.108250000000     0.085      
N        N      0.332983333333     0.193300000000     0.141750000000     0.085      
N        N      0.332983333333     0.306700000000     0.391750000000     0.085      
N        N      0.167016666667     0.140033333333     0.358250000000     0.085      
N        N      0.167016666667     0.026633333333     0.608250000000     0.085      
N        N      0.332983333333     0.193300000000     0.641750000000     0.085      
N        N      0.332983333333     0.306700000000     0.891750000000     0.085      
N        N      0.167016666667     0.140033333333     0.858250000000     0.085      
N        N      0.167016666667     0.359966666667     0.108250000000     0.085      
N        N      0.332983333333     0.526633333333     0.141750000000     0.085      
N        N      0.332983333333     0.640033333333     0.391750000000     0.085      
N        N      0.167016666667     0.473366666667     0.358250000000     0.085      
N        N      0.167016666667     0.359966666667     0.608250000000     0.085      
N        N      0.332983333333     0.526633333333     0.641750000000     0.085      
N        N      0.332983333333     0.640033333333     0.891750000000     0.085      
N        N      0.167016666667     0.473366666667     0.858250000000     0.085      
N        N      0.167016666667     0.693300000000     0.108250000000     0.085      
N        N      0.332983333333     0.859966666667     0.141750000000     0.085      
N        N      0.332983333333     0.973366666667     0.391750000000     0.085      
N        N      0.167016666667     0.806700000000     0.358250000000     0.085      
N        N      0.167016666667     0.693300000000     0.608250000000     0.085      
N        N      0.332983333333     0.859966666667     0.641750000000     0.085      
N        N      0.332983333333     0.973366666667     0.891750000000     0.085      
N        N      0.167016666667     0.806700000000     0.858250000000     0.085      
N        N      0.333683333333     0.026633333333     0.108250000000     0.085      
N        N      0.499650000000     0.193300000000     0.141750000000     0.085      
N        N      0.499650000000     0.306700000000     0.391750000000     0.085      
N        N      0.333683333333     0.140033333333     0.358250000000     0.085      
N        N      0.333683333333     0.026633333333     0.608250000000     0.085      
N        N      0.499650000000     0.193300000000     0.641750000000     0.085      
N        N      0.499650000000     0.306700000000     0.891750000000     0.085      
N        N      0.333683333333     0.140033333333     0.858250000000     0.085      
N        N      0.333683333333     0.359966666667     0.108250000000     0.085      
N        N      0.499650000000     0.526633333333     0.141750000000     0.085      
N        N      0.499650000000     0.640033333333     0.391750000000     0.085      
N        N      0.333683333333     0.473366666667     0.358250000000     0.085      
N        N      0.333683333333     0.359966666667     0.608250000000     0.085      
N        N      0.499650000000     0.526633333333     0.641750000000     0.085      
N        N      0.499650000000     0.640033333333     0.891750000000     0.085      
N        N      0.333683333333     0.473366666667     0.858250000000     0.085      
N        N      0.333683333333     0.693300000000     0.108250000000     0.085      
N        N      0.499650000000     0.859966666667     0.141750000000     0.085      
N        N      0.499650000000     0.973366666667     0.391750000000     0.085      
N        N      0.333683333333     0.806700000000     0.358250000000     0.085      
N        N      0.333683333333     0.693300000000     0.608250000000     0.085      
N        N      0.499650000000     0.859966666667     0.641750000000     0.085      
N        N      0.499650000000     0.973366666667     0.891750000000     0.085      
N        N      0.333683333333     0.806700000000     0.858250000000     0.085      
N        N      0.500350000000     0.026633333333     0.108250000000     0.085      
N        N      0.666316666667     0.193300000000     0.141750000000     0.085      
N        N      0.666316666667     0.306700000000     0.391750000000     0.085      
N        N      0.500350000000     0.140033333333     0.358250000000     0.085      
N        N      0.500350000000     0.026633333333     0.608250000000     0.085      
N        N      0.666316666667     0.193300000000     0.641750000000     0.085      
N        N      0.666316666667     0.306700000000     0.891750000000     0.085      
N        N      0.500350000000     0.140033333333     0.858250000000     0.085      
N        N      0.500350000000     0.359966666667     0.108250000000     0.085      
N        N      0.666316666667     0.526633333333     0.141750000000     0.085      
N        N      0.666316666667     0.640033333333     0.391750000000     0.085      
N        N      0.500350000000     0.473366666667     0.358250000000     0.085      
N        N      0.500350000000     0.359966666667     0.608250000000     0.085      
N        N      0.666316666667     0.526633333333     0.641750000000     0.085      
N        N      0.666316666667     0.640033333333     0.891750000000     0.085      
N        N      0.500350000000     0.473366666667     0.858250000000     0.085      
N        N      0.500350000000     0.693300000000     0.108250000000     0.085      
N        N      0.666316666667     0.859966666667     0.141750000000     0.085      
N        N      0.666316666667     0.973366666667     0.391750000000     0.085      
N        N      0.500350000000     0.806700000000     0.358250000000     0.085      
N        N      0.500350000000     0.693300000000     0.608250000000     0.085      
N        N      0.666316666667     0.859966666667     0.641750000000     0.085      
N        N      0.666316666667     0.973366666667     0.891750000000     0.085      
N        N      0.500350000000     0.806700000000     0.858250000000     0.085      
N        N      0.667016666667     0.026633333333     0.108250000000     0.085      
N        N      0.832983333333     0.193300000000     0.141750000000     0.085      
N        N      0.832983333333     0.306700000000     0.391750000000     0.085      
N        N      0.667016666667     0.140033333333     0.358250000000     0.085      
N        N      0.667016666667     0.026633333333     0.608250000000     0.085      
N        N      0.832983333333     0.193300000000     0.641750000000     0.085      
N        N      0.832983333333     0.306700000000     0.891750000000     0.085      
N        N      0.667016666667     0.140033333333     0.858250000000     0.085      
N        N      0.667016666667     0.359966666667     0.108250000000     0.085      
N        N      0.832983333333     0.526633333333     0.141750000000     0.085      
N        N      0.832983333333     0.640033333333     0.391750000000     0.085      
N        N      0.667016666667     0.473366666667     0.358250000000     0.085      
N        N      0.667016666667     0.359966666667     0.608250000000     0.085      
N        N      0.832983333333     0.526633333333     0.641750000000     0.085      
N        N      0.832983333333     0.640033333333     0.891750000000     0.085      
N        N      0.667016666667     0.473366666667     0.858250000000     0.085      
N        N      0.667016666667     0.693300000000     0.108250000000     0.085      
N        N      0.832983333333     0.859966666667     0.141750000000     0.085      
N        N      0.832983333333     0.973366666667     0.391750000000     0.085      
N        N      0.667016666667     0.806700000000     0.358250000000     0.085      
N        N      0.667016666667     0.693300000000     0.608250000000     0.085      
N        N      0.832983333333     0.859966666667     0.641750000000     0.085      
N        N      0.832983333333     0.973366666667     0.891750000000     0.085      
N        N      0.667016666667     0.806700000000     0.858250000000     0.085      
N        N      0.833683333333     0.026633333333     0.108250000000     0.085      
N        N      0.999650000000     0.193300000000     0.141750000000     0.085      
N        N      0.999650000000     0.306700000000     0.391750000000     0.085      
N        N      0.833683333333     0.140033333333     0.358250000000     0.085      
N        N      0.833683333333     0.026633333333     0.608250000000     0.085      
N        N      0.999650000000     0.193300000000     0.641750000000     0.085      
N        N      0.999650000000     0.306700000000     0.891750000000     0.085      
N        N      0.833683333333     0.140033333333     0.858250000000     0.085      
N        N      0.833683333333     0.359966666667     0.108250000000     0.085      
N        N      0.999650000000     0.526633333333     0.141750000000     0.085      
N        N      0.999650000000     0.640033333333     0.391750000000     0.085      
N        N      0.833683333333     0.473366666667     0.358250000000     0.085      
N        N      0.833683333333     0.359966666667     0.608250000000     0.085      
N        N      0.999650000000     0.526633333333     0.641750000000     0.085      
N        N      0.999650000000     0.640033333333     0.891750000000     0.085      
N        N      0.833683333333     0.473366666667     0.858250000000     0.085      
N        N      0.833683333333     0.693300000000     0.108250000000     0.085      
N        N      0.999650000000     0.859966666667     0.141750000000     0.085      
N        N      0.999650000000     0.973366666667     0.391750000000     0.085      
N        N      0.833683333333     0.806700000000     0.358250000000     0.085      
N        N      0.833683333333     0.693300000000     0.608250000000     0.085      
N        N      0.999650000000     0.859966666667     0.641750000000     0.085      
N        N      0.999650000000     0.973366666667     0.891750000000     0.085      
N        N      0.833683333333     0.806700000000     0.858250000000     0.085      
O        O      0.113683333333     0.327100000000     0.022800000000     0.051      
O        O      0.159866666667     0.040800000000     0.028650000000     0.051      
O        O      0.021216666667     0.317866666667     0.045150000000     0.051      
O        O      0.049600000000     0.082600000000     0.216550000000     0.051      
O        O      0.083016666667     0.105633333333     0.179850000000     0.051      
O        O      0.052983333333     0.160433333333     0.227200000000     0.051      
O        O      0.006800000000     0.207466666667     0.221350000000     0.051      
O        O      0.145450000000     0.151200000000     0.204850000000     0.051      
O        O      0.117066666667     0.249266666667     0.033450000000     0.051      
O        O      0.083650000000     0.272300000000     0.070150000000     0.051      
O        O      0.052983333333     0.006233333333     0.477200000000     0.051      
O        O      0.006800000000     0.292533333333     0.471350000000     0.051      
O        O      0.145450000000     0.015466666667     0.454850000000     0.051      
O        O      0.117066666667     0.250733333333     0.283450000000     0.051      
O        O      0.083650000000     0.227700000000     0.320150000000     0.051      
O        O      0.113683333333     0.172900000000     0.272800000000     0.051      
O        O      0.159866666667     0.125866666667     0.278650000000     0.051      
O        O      0.021216666667     0.182133333333     0.295150000000     0.051      
O        O      0.049600000000     0.084066666667     0.466550000000     0.051      
O        O      0.083016666667     0.061033333333     0.429850000000     0.051      
O        O      0.113683333333     0.327100000000     0.522800000000     0.051      
O        O      0.159866666667     0.040800000000     0.528650000000     0.051      
O        O      0.021216666667     0.317866666667     0.545150000000     0.051      
O        O      0.049600000000     0.082600000000     0.716550000000     0.051      
O        O      0.083016666667     0.105633333333     0.679850000000     0.051      
O        O      0.052983333333     0.160433333333     0.727200000000     0.051      
O        O      0.006800000000     0.207466666667     0.721350000000     0.051      
O        O      0.145450000000     0.151200000000     0.704850000000     0.051      
O        O      0.117066666667     0.249266666667     0.533450000000     0.051      
O        O      0.083650000000     0.272300000000     0.570150000000     0.051      
O        O      0.052983333333     0.006233333333     0.977200000000     0.051      
O        O      0.006800000000     0.292533333333     0.971350000000     0.051      
O        O      0.145450000000     0.015466666667     0.954850000000     0.051      
O        O      0.117066666667     0.250733333333     0.783450000000     0.051      
O        O      0.083650000000     0.227700000000     0.820150000000     0.051      
O        O      0.113683333333     0.172900000000     0.772800000000     0.051      
O        O      0.159866666667     0.125866666667     0.778650000000     0.051      
O        O      0.021216666667     0.182133333333     0.795150000000     0.051      
O        O      0.049600000000     0.084066666667     0.966550000000     0.051      
O        O      0.083016666667     0.061033333333     0.929850000000     0.051      
O        O      0.113683333333     0.660433333333     0.022800000000     0.051      
O        O      0.159866666667     0.374133333333     0.028650000000     0.051      
O        O      0.021216666667     0.651200000000     0.045150000000     0.051      
O        O      0.049600000000     0.415933333333     0.216550000000     0.051      
O        O      0.083016666667     0.438966666667     0.179850000000     0.051      
O        O      0.052983333333     0.493766666667     0.227200000000     0.051      
O        O      0.006800000000     0.540800000000     0.221350000000     0.051      
O        O      0.145450000000     0.484533333333     0.204850000000     0.051      
O        O      0.117066666667     0.582600000000     0.033450000000     0.051      
O        O      0.083650000000     0.605633333333     0.070150000000     0.051      
O        O      0.052983333333     0.339566666667     0.477200000000     0.051      
O        O      0.006800000000     0.625866666667     0.471350000000     0.051      
O        O      0.145450000000     0.348800000000     0.454850000000     0.051      
O        O      0.117066666667     0.584066666667     0.283450000000     0.051      
O        O      0.083650000000     0.561033333333     0.320150000000     0.051      
O        O      0.113683333333     0.506233333333     0.272800000000     0.051      
O        O      0.159866666667     0.459200000000     0.278650000000     0.051      
O        O      0.021216666667     0.515466666667     0.295150000000     0.051      
O        O      0.049600000000     0.417400000000     0.466550000000     0.051      
O        O      0.083016666667     0.394366666667     0.429850000000     0.051      
O        O      0.113683333333     0.660433333333     0.522800000000     0.051      
O        O      0.159866666667     0.374133333333     0.528650000000     0.051      
O        O      0.021216666667     0.651200000000     0.545150000000     0.051      
O        O      0.049600000000     0.415933333333     0.716550000000     0.051      
O        O      0.083016666667     0.438966666667     0.679850000000     0.051      
O        O      0.052983333333     0.493766666667     0.727200000000     0.051      
O        O      0.006800000000     0.540800000000     0.721350000000     0.051      
O        O      0.145450000000     0.484533333333     0.704850000000     0.051      
O        O      0.117066666667     0.582600000000     0.533450000000     0.051      
O        O      0.083650000000     0.605633333333     0.570150000000     0.051      
O        O      0.052983333333     0.339566666667     0.977200000000     0.051      
O        O      0.006800000000     0.625866666667     0.971350000000     0.051      
O        O      0.145450000000     0.348800000000     0.954850000000     0.051      
O        O      0.117066666667     0.584066666667     0.783450000000     0.051      
O        O      0.083650000000     0.561033333333     0.820150000000     0.051      
O        O      0.113683333333     0.506233333333     0.772800000000     0.051      
O        O      0.159866666667     0.459200000000     0.778650000000     0.051      
O        O      0.021216666667     0.515466666667     0.795150000000     0.051      
O        O      0.049600000000     0.417400000000     0.966550000000     0.051      
O        O      0.083016666667     0.394366666667     0.929850000000     0.051      
O        O      0.113683333333     0.993766666667     0.022800000000     0.051      
O        O      0.159866666667     0.707466666667     0.028650000000     0.051      
O        O      0.021216666667     0.984533333333     0.045150000000     0.051      
O        O      0.049600000000     0.749266666667     0.216550000000     0.051      
O        O      0.083016666667     0.772300000000     0.179850000000     0.051      
O        O      0.052983333333     0.827100000000     0.227200000000     0.051      
O        O      0.006800000000     0.874133333333     0.221350000000     0.051      
O        O      0.145450000000     0.817866666667     0.204850000000     0.051      
O        O      0.117066666667     0.915933333333     0.033450000000     0.051      
O        O      0.083650000000     0.938966666667     0.070150000000     0.051      
O        O      0.052983333333     0.672900000000     0.477200000000     0.051      
O        O      0.006800000000     0.959200000000     0.471350000000     0.051      
O        O      0.145450000000     0.682133333333     0.454850000000     0.051      
O        O      0.117066666667     0.917400000000     0.283450000000     0.051      
O        O      0.083650000000     0.894366666667     0.320150000000     0.051      
O        O      0.113683333333     0.839566666667     0.272800000000     0.051      
O        O      0.159866666667     0.792533333333     0.278650000000     0.051      
O        O      0.021216666667     0.848800000000     0.295150000000     0.051      
O        O      0.049600000000     0.750733333333     0.466550000000     0.051      
O        O      0.083016666667     0.727700000000     0.429850000000     0.051      
O        O      0.113683333333     0.993766666667     0.522800000000     0.051      
O        O      0.159866666667     0.707466666667     0.528650000000     0.051      
O        O      0.021216666667     0.984533333333     0.545150000000     0.051      
O        O      0.049600000000     0.749266666667     0.716550000000     0.051      
O        O      0.083016666667     0.772300000000     0.679850000000     0.051      
O        O      0.052983333333     0.827100000000     0.727200000000     0.051      
O        O      0.006800000000     0.874133333333     0.721350000000     0.051      
O        O      0.145450000000     0.817866666667     0.704850000000     0.051      
O        O      0.117066666667     0.915933333333     0.533450000000     0.051      
O        O      0.083650000000     0.938966666667     0.570150000000     0.051      
O        O      0.052983333333     0.672900000000     0.977200000000     0.051      
O        O      0.006800000000     0.959200000000     0.971350000000     0.051      
O        O      0.145450000000     0.682133333333     0.954850000000     0.051      
O        O      0.117066666667     0.917400000000     0.783450000000     0.051      
O        O      0.083650000000     0.894366666667     0.820150000000     0.051      
O        O      0.113683333333     0.839566666667     0.772800000000     0.051      
O        O      0.159866666667     0.792533333333     0.778650000000     0.051      
O        O      0.021216666667     0.848800000000     0.795150000000     0.051      
O        O      0.049600000000     0.750733333333     0.966550000000     0.051      
O        O      0.083016666667     0.727700000000     0.929850000000     0.051      
O        O      0.280350000000     0.327100000000     0.022800000000     0.051      
O        O      0.326533333333     0.040800000000     0.028650000000     0.051      
O        O      0.187883333333     0.317866666667     0.045150000000     0.051      
O        O      0.216266666667     0.082600000000     0.216550000000     0.051      
O        O      0.249683333333     0.105633333333     0.179850000000     0.051      
O        O      0.219650000000     0.160433333333     0.227200000000     0.051      
O        O      0.173466666667     0.207466666667     0.221350000000     0.051      
O        O      0.312116666667     0.151200000000     0.204850000000     0.051      
O        O      0.283733333333     0.249266666667     0.033450000000     0.051      
O        O      0.250316666667     0.272300000000     0.070150000000     0.051      
O        O      0.219650000000     0.006233333333     0.477200000000     0.051      
O        O      0.173466666667     0.292533333333     0.471350000000     0.051      
O        O      0.312116666667     0.015466666667     0.454850000000     0.051      
O        O      0.283733333333     0.250733333333     0.283450000000     0.051      
O        O      0.250316666667     0.227700000000     0.320150000000     0.051      
O        O      0.280350000000     0.172900000000     0.272800000000     0.051      
O        O      0.326533333333     0.125866666667     0.278650000000     0.051      
O        O      0.187883333333     0.182133333333     0.295150000000     0.051      
O        O      0.216266666667     0.084066666667     0.466550000000     0.051      
O        O      0.249683333333     0.061033333333     0.429850000000     0.051      
O        O      0.280350000000     0.327100000000     0.522800000000     0.051      
O        O      0.326533333333     0.040800000000     0.528650000000     0.051      
O        O      0.187883333333     0.317866666667     0.545150000000     0.051      
O        O      0.216266666667     0.082600000000     0.716550000000     0.051      
O        O      0.249683333333     0.105633333333     0.679850000000     0.051      
O        O      0.219650000000     0.160433333333     0.727200000000     0.051      
O        O      0.173466666667     0.207466666667     0.721350000000     0.051      
O        O      0.312116666667     0.151200000000     0.704850000000     0.051      
O        O      0.283733333333     0.249266666667     0.533450000000     0.051      
O        O      0.250316666667     0.272300000000     0.570150000000     0.051      
O        O      0.219650000000     0.006233333333     0.977200000000     0.051      
O        O      0.173466666667     0.292533333333     0.971350000000     0.051      
O        O      0.312116666667     0.015466666667     0.954850000000     0.051      
O        O      0.283733333333     0.250733333333     0.783450000000     0.051      
O        O      0.250316666667     0.227700000000     0.820150000000     0.051      
O        O      0.280350000000     0.172900000000     0.772800000000     0.051      
O        O      0.326533333333     0.125866666667     0.778650000000     0.051      
O        O      0.187883333333     0.182133333333     0.795150000000     0.051      
O        O      0.216266666667     0.084066666667     0.966550000000     0.051      
O        O      0.249683333333     0.061033333333     0.929850000000     0.051      
O        O      0.280350000000     0.660433333333     0.022800000000     0.051      
O        O      0.326533333333     0.374133333333     0.028650000000     0.051      
O        O      0.187883333333     0.651200000000     0.045150000000     0.051      
O        O      0.216266666667     0.415933333333     0.216550000000     0.051      
O        O      0.249683333333     0.438966666667     0.179850000000     0.051      
O        O      0.219650000000     0.493766666667     0.227200000000     0.051      
O        O      0.173466666667     0.540800000000     0.221350000000     0.051      
O        O      0.312116666667     0.484533333333     0.204850000000     0.051      
O        O      0.283733333333     0.582600000000     0.033450000000     0.051      
O        O      0.250316666667     0.605633333333     0.070150000000     0.051      
O        O      0.219650000000     0.339566666667     0.477200000000     0.051      
O        O      0.173466666667     0.625866666667     0.471350000000     0.051      
O        O      0.312116666667     0.348800000000     0.454850000000     0.051      
O        O      0.283733333333     0.584066666667     0.283450000000     0.051      
O        O      0.250316666667     0.561033333333     0.320150000000     0.051      
O        O      0.280350000000     0.506233333333     0.272800000000     0.051      
O        O      0.326533333333     0.459200000000     0.278650000000     0.051      
O        O      0.187883333333     0.515466666667     0.295150000000     0.051      
O        O      0.216266666667     0.417400000000     0.466550000000     0.051      
O        O      0.249683333333     0.394366666667     0.429850000000     0.051      
O        O      0.280350000000     0.660433333333     0.522800000000     0.051      
O        O      0.326533333333     0.374133333333     0.528650000000     0.051      
O        O      0.187883333333     0.651200000000     0.545150000000     0.051      
O        O      0.216266666667     0.415933333333     0.716550000000     0.051      
O        O      0.249683333333     0.438966666667     0.679850000000     0.051      
O        O      0.219650000000     0.493766666667     0.727200000000     0.051      
O        O      0.173466666667     0.540800000000     0.721350000000     0.051      
O        O      0.312116666667     0.484533333333     0.704850000000     0.051      
O        O      0.283733333333     0.582600000000     0.533450000000     0.051      
O        O      0.250316666667     0.605633333333     0.570150000000     0.051      
O        O      0.219650000000     0.339566666667     0.977200000000     0.051      
O        O      0.173466666667     0.625866666667     0.971350000000     0.051      
O        O      0.312116666667     0.348800000000     0.954850000000     0.051      
O        O      0.283733333333     0.584066666667     0.783450000000     0.051      
O        O      0.250316666667     0.561033333333     0.820150000000     0.051      
O        O      0.280350000000     0.506233333333     0.772800000000     0.051      
O        O      0.326533333333     0.459200000000     0.778650000000     0.051      
O        O      0.187883333333     0.515466666667     0.795150000000     0.051      
O        O      0.216266666667     0.417400000000     0.966550000000     0.051      
O        O      0.249683333333     0.394366666667     0.929850000000     0.051      
O        O      0.280350000000     0.993766666667     0.022800000000     0.051      
O        O      0.326533333333     0.707466666667     0.028650000000     0.051      
O        O      0.187883333333     0.984533333333     0.045150000000     0.051      
O        O      0.216266666667     0.749266666667     0.216550000000     0.051      
O        O      0.249683333333     0.772300000000     0.179850000000     0.051      
O        O      0.219650000000     0.827100000000     0.227200000000     0.051      
O        O      0.173466666667     0.874133333333     0.221350000000     0.051      
O        O      0.312116666667     0.817866666667     0.204850000000     0.051      
O        O      0.283733333333     0.915933333333     0.033450000000     0.051      
O        O      0.250316666667     0.938966666667     0.070150000000     0.051      
O        O      0.219650000000     0.672900000000     0.477200000000     0.051      
O        O      0.173466666667     0.959200000000     0.471350000000     0.051      
O        O      0.312116666667     0.682133333333     0.454850000000     0.051      
O        O      0.283733333333     0.917400000000     0.283450000000     0.051      
O        O      0.250316666667     0.894366666667     0.320150000000     0.051      
O        O      0.280350000000     0.839566666667     0.272800000000     0.051      
O        O      0.326533333333     0.792533333333     0.278650000000     0.051      
O        O      0.187883333333     0.848800000000     0.295150000000     0.051      
O        O      0.216266666667     0.750733333333     0.466550000000     0.051      
O        O      0.249683333333     0.727700000000     0.429850000000     0.051      
O        O      0.280350000000     0.993766666667     0.522800000000     0.051      
O        O      0.326533333333     0.707466666667     0.528650000000     0.051      
O        O      0.187883333333     0.984533333333     0.545150000000     0.051      
O        O      0.216266666667     0.749266666667     0.716550000000     0.051      
O        O      0.249683333333     0.772300000000     0.679850000000     0.051      
O        O      0.219650000000     0.827100000000     0.727200000000     0.051      
O        O      0.173466666667     0.874133333333     0.721350000000     0.051      
O        O      0.312116666667     0.817866666667     0.704850000000     0.051      
O        O      0.283733333333     0.915933333333     0.533450000000     0.051      
O        O      0.250316666667     0.938966666667     0.570150000000     0.051      
O        O      0.219650000000     0.672900000000     0.977200000000     0.051      
O        O      0.173466666667     0.959200000000     0.971350000000     0.051      
O        O      0.312116666667     0.682133333333     0.954850000000     0.051      
O        O      0.283733333333     0.917400000000     0.783450000000     0.051      
O        O      0.250316666667     0.894366666667     0.820150000000     0.051      
O        O      0.280350000000     0.839566666667     0.772800000000     0.051      
O        O      0.326533333333     0.792533333333     0.778650000000     0.051      
O        O      0.187883333333     0.848800000000     0.795150000000     0.051      
O        O      0.216266666667     0.750733333333     0.966550000000     0.051      
O        O      0.249683333333     0.727700000000     0.929850000000     0.051      
O        O      0.447016666667     0.327100000000     0.022800000000     0.051      
O        O      0.493200000000     0.040800000000     0.028650000000     0.051      
O        O      0.354550000000     0.317866666667     0.045150000000     0.051      
O        O      0.382933333333     0.082600000000     0.216550000000     0.051      
O        O      0.416350000000     0.105633333333     0.179850000000     0.051      
O        O      0.386316666667     0.160433333333     0.227200000000     0.051      
O        O      0.340133333333     0.207466666667     0.221350000000     0.051      
O        O      0.478783333333     0.151200000000     0.204850000000     0.051      
O        O      0.450400000000     0.249266666667     0.033450000000     0.051      
O        O      0.416983333333     0.272300000000     0.070150000000     0.051      
O        O      0.386316666667     0.006233333333     0.477200000000     0.051      
O        O      0.340133333333     0.292533333333     0.471350000000     0.051      
O        O      0.478783333333     0.015466666667     0.454850000000     0.051      
O        O      0.450400000000     0.250733333333     0.283450000000     0.051      
O        O      0.416983333333     0.227700000000     0.320150000000     0.051      
O        O      0.447016666667     0.172900000000     0.272800000000     0.051      
O        O      0.493200000000     0.125866666667     0.278650000000     0.051      
O        O      0.354550000000     0.182133333333     0.295150000000     0.051      
O        O      0.382933333333     0.084066666667     0.466550000000     0.051      
O        O      0.416350000000     0.061033333333     0.429850000000     0.051      
O        O      0.447016666667     0.327100000000     0.522800000000     0.051      
O        O      0.493200000000     0.040800000000     0.528650000000     0.051      
O        O      0.354550000000     0.317866666667     0.545150000000     0.051      
O        O      0.382933333333     0.082600000000     0.716550000000     0.051      
O        O      0.416350000000     0.105633333333     0.679850000000     0.051      
O        O      0.386316666667     0.160433333333     0.727200000000     0.051      
O        O      0.340133333333     0.207466666667     0.721350000000     0.051      
O        O      0.478783333333     0.151200000000     0.704850000000     0.051      
O        O      0.450400000000     0.249266666667     0.533450000000     0.051      
O        O      0.416983333333     0.272300000000     0.570150000000     0.051      
O        O      0.386316666667     0.006233333333     0.977200000000     0.051      
O        O      0.340133333333     0.292533333333     0.971350000000     0.051      
O        O      0.478783333333     0.015466666667     0.954850000000     0.051      
O        O      0.450400000000     0.250733333333     0.783450000000     0.051      
O        O      0.416983333333     0.227700000000     0.820150000000     0.051      
O        O      0.447016666667     0.172900000000     0.772800000000     0.051      
O        O      0.493200000000     0.125866666667     0.778650000000     0.051      
O        O      0.354550000000     0.182133333333     0.795150000000     0.051      
O        O      0.382933333333     0.084066666667     0.966550000000     0.051      
O        O      0.416350000000     0.061033333333     0.929850000000     0.051      
O        O      0.447016666667     0.660433333333     0.022800000000     0.051      
O        O      0.493200000000     0.374133333333     0.028650000000     0.051      
O        O      0.354550000000     0.651200000000     0.045150000000     0.051      
O        O      0.382933333333     0.415933333333     0.216550000000     0.051      
O        O      0.416350000000     0.438966666667     0.179850000000     0.051      
O        O      0.386316666667     0.493766666667     0.227200000000     0.051      
O        O      0.340133333333     0.540800000000     0.221350000000     0.051      
O        O      0.478783333333     0.484533333333     0.204850000000     0.051      
O        O      0.450400000000     0.582600000000     0.033450000000     0.051      
O        O      0.416983333333     0.605633333333     0.070150000000     0.051      
O        O      0.386316666667     0.339566666667     0.477200000000     0.051      
O        O      0.340133333333     0.625866666667     0.471350000000     0.051      
O        O      0.478783333333     0.348800000000     0.454850000000     0.051      
O        O      0.450400000000     0.584066666667     0.283450000000     0.051      
O        O      0.416983333333     0.561033333333     0.320150000000     0.051      
O        O      0.447016666667     0.506233333333     0.272800000000     0.051      
O        O      0.493200000000     0.459200000000     0.278650000000     0.051      
O        O      0.354550000000     0.515466666667     0.295150000000     0.051      
O        O      0.382933333333     0.417400000000     0.466550000000     0.051      
O        O      0.416350000000     0.394366666667     0.429850000000     0.051      
O        O      0.447016666667     0.660433333333     0.522800000000     0.051      
O        O      0.493200000000     0.374133333333     0.528650000000     0.051      
O        O      0.354550000000     0.651200000000     0.545150000000     0.051      
O        O      0.382933333333     0.415933333333     0.716550000000     0.051      
O        O      0.416350000000     0.438966666667     0.679850000000     0.051      
O        O      0.386316666667     0.493766666667     0.727200000000     0.051      
O        O      0.340133333333     0.540800000000     0.721350000000     0.051      
O        O      0.478783333333     0.484533333333     0.704850000000     0.051      
O        O      0.450400000000     0.582600000000     0.533450000000     0.051      
O        O      0.416983333333     0.605633333333     0.570150000000     0.051      
O        O      0.386316666667     0.339566666667     0.977200000000     0.051      
O        O      0.340133333333     0.625866666667     0.971350000000     0.051      
O        O      0.478783333333     0.348800000000     0.954850000000     0.051      
O        O      0.450400000000     0.584066666667     0.783450000000     0.051      
O        O      0.416983333333     0.561033333333     0.820150000000     0.051      
O        O      0.447016666667     0.506233333333     0.772800000000     0.051      
O        O      0.493200000000     0.459200000000     0.778650000000     0.051      
O        O      0.354550000000     0.515466666667     0.795150000000     0.051      
O        O      0.382933333333     0.417400000000     0.966550000000     0.051      
O        O      0.416350000000     0.394366666667     0.929850000000     0.051      
O        O      0.447016666667     0.993766666667     0.022800000000     0.051      
O        O      0.493200000000     0.707466666667     0.028650000000     0.051      
O        O      0.354550000000     0.984533333333     0.045150000000     0.051      
O        O      0.382933333333     0.749266666667     0.216550000000     0.051      
O        O      0.416350000000     0.772300000000     0.179850000000     0.051      
O        O      0.386316666667     0.827100000000     0.227200000000     0.051      
O        O      0.340133333333     0.874133333333     0.221350000000     0.051      
O        O      0.478783333333     0.817866666667     0.204850000000     0.051      
O        O      0.450400000000     0.915933333333     0.033450000000     0.051      
O        O      0.416983333333     0.938966666667     0.070150000000     0.051      
O        O      0.386316666667     0.672900000000     0.477200000000     0.051      
O        O      0.340133333333     0.959200000000     0.471350000000     0.051      
O        O      0.478783333333     0.682133333333     0.454850000000     0.051      
O        O      0.450400000000     0.917400000000     0.283450000000     0.051      
O        O      0.416983333333     0.894366666667     0.320150000000     0.051      
O        O      0.447016666667     0.839566666667     0.272800000000     0.051      
O        O      0.493200000000     0.792533333333     0.278650000000     0.051      
O        O      0.354550000000     0.848800000000     0.295150000000     0.051      
O        O      0.382933333333     0.750733333333     0.466550000000     0.051      
O        O      0.416350000000     0.727700000000     0.429850000000     0.051      
O        O      0.447016666667     0.993766666667     0.522800000000     0.051      
O        O      0.493200000000     0.707466666667     0.528650000000     0.051      
O        O      0.354550000000     0.984533333333     0.545150000000     0.051      
O        O      0.382933333333     0.749266666667     0.716550000000     0.051      
O        O      0.416350000000     0.772300000000     0.679850000000     0.051      
O        O      0.386316666667     0.827100000000     0.727200000000     0.051      
O        O      0.340133333333     0.874133333333     0.721350000000     0.051      
O        O      0.478783333333     0.817866666667     0.704850000000     0.051      
O        O      0.450400000000     0.915933333333     0.533450000000     0.051      
O        O      0.416983333333     0.938966666667     0.570150000000     0.051      
O        O      0.386316666667     0.672900000000     0.977200000000     0.051      
O        O      0.340133333333     0.959200000000     0.971350000000     0.051      
O        O      0.478783333333     0.682133333333     0.954850000000     0.051      
O        O      0.450400000000     0.917400000000     0.783450000000     0.051      
O        O      0.416983333333     0.894366666667     0.820150000000     0.051      
O        O      0.447016666667     0.839566666667     0.772800000000     0.051      
O        O      0.493200000000     0.792533333333     0.778650000000     0.051      
O        O      0.354550000000     0.848800000000     0.795150000000     0.051      
O        O      0.382933333333     0.750733333333     0.966550000000     0.051      
O        O      0.416350000000     0.727700000000     0.929850000000     0.051      
O        O      0.613683333333     0.327100000000     0.022800000000     0.051      
O        O      0.659866666667     0.040800000000     0.028650000000     0.051      
O        O      0.521216666667     0.317866666667     0.045150000000     0.051      
O        O      0.549600000000     0.082600000000     0.216550000000     0.051      
O        O      0.583016666667     0.105633333333     0.179850000000     0.051      
O        O      0.552983333333     0.160433333333     0.227200000000     0.051      
O        O      0.506800000000     0.207466666667     0.221350000000     0.051      
O        O      0.645450000000     0.151200000000     0.204850000000     0.051      
O        O      0.617066666667     0.249266666667     0.033450000000     0.051      
O        O      0.583650000000     0.272300000000     0.070150000000     0.051      
O        O      0.552983333333     0.006233333333     0.477200000000     0.051      
O        O      0.506800000000     0.292533333333     0.471350000000     0.051      
O        O      0.645450000000     0.015466666667     0.454850000000     0.051      
O        O      0.617066666667     0.250733333333     0.283450000000     0.051      
O        O      0.583650000000     0.227700000000     0.320150000000     0.051      
O        O      0.613683333333     0.172900000000     0.272800000000     0.051      
O        O      0.659866666667     0.125866666667     0.278650000000     0.051      
O        O      0.521216666667     0.182133333333     0.295150000000     0.051      
O        O      0.549600000000     0.084066666667     0.466550000000     0.051      
O        O      0.583016666667     0.061033333333     0.429850000000     0.051      
O        O      0.613683333333     0.327100000000     0.522800000000     0.051      
O        O      0.659866666667     0.040800000000     0.528650000000     0.051      
O        O      0.521216666667     0.317866666667     0.545150000000     0.051      
O        O      0.549600000000     0.082600000000     0.716550000000     0.051      
O        O      0.583016666667     0.105633333333     0.679850000000     0.051      
O        O      0.552983333333     0.160433333333     0.727200000000     0.051      
O        O      0.506800000000     0.207466666667     0.721350000000     0.051      
O        O      0.645450000000     0.151200000000     0.704850000000     0.051      
O        O      0.617066666667     0.249266666667     0.533450000000     0.051      
O        O      0.583650000000     0.272300000000     0.570150000000     0.051      
O        O      0.552983333333     0.006233333333     0.977200000000     0.051      
O        O      0.506800000000     0.292533333333     0.971350000000     0.051      
O        O      0.645450000000     0.015466666667     0.954850000000     0.051      
O        O      0.617066666667     0.250733333333     0.783450000000     0.051      
O        O      0.583650000000     0.227700000000     0.820150000000     0.051      
O        O      0.613683333333     0.172900000000     0.772800000000     0.051      
O        O      0.659866666667     0.125866666667     0.778650000000     0.051      
O        O      0.521216666667     0.182133333333     0.795150000000     0.051      
O        O      0.549600000000     0.084066666667     0.966550000000     0.051      
O        O      0.583016666667     0.061033333333     0.929850000000     0.051      
O        O      0.613683333333     0.660433333333     0.022800000000     0.051      
O        O      0.659866666667     0.374133333333     0.028650000000     0.051      
O        O      0.521216666667     0.651200000000     0.045150000000     0.051      
O        O      0.549600000000     0.415933333333     0.216550000000     0.051      
O        O      0.583016666667     0.438966666667     0.179850000000     0.051      
O        O      0.552983333333     0.493766666667     0.227200000000     0.051      
O        O      0.506800000000     0.540800000000     0.221350000000     0.051      
O        O      0.645450000000     0.484533333333     0.204850000000     0.051      
O        O      0.617066666667     0.582600000000     0.033450000000     0.051      
O        O      0.583650000000     0.605633333333     0.070150000000     0.051      
O        O      0.552983333333     0.339566666667     0.477200000000     0.051      
O        O      0.506800000000     0.625866666667     0.471350000000     0.051      
O        O      0.645450000000     0.348800000000     0.454850000000     0.051      
O        O      0.617066666667     0.584066666667     0.283450000000     0.051      
O        O      0.583650000000     0.561033333333     0.320150000000     0.051      
O        O      0.613683333333     0.506233333333     0.272800000000     0.051      
O        O      0.659866666667     0.459200000000     0.278650000000     0.051      
O        O      0.521216666667     0.515466666667     0.295150000000     0.051      
O        O      0.549600000000     0.417400000000     0.466550000000     0.051      
O        O      0.583016666667     0.394366666667     0.429850000000     0.051      
O        O      0.613683333333     0.660433333333     0.522800000000     0.051      
O        O      0.659866666667     0.374133333333     0.528650000000     0.051      
O        O      0.521216666667     0.651200000000     0.545150000000     0.051      
O        O      0.549600000000     0.415933333333     0.716550000000     0.051      
O        O      0.583016666667     0.438966666667     0.679850000000     0.051      
O        O      0.552983333333     0.493766666667     0.727200000000     0.051      
O        O      0.506800000000     0.540800000000     0.721350000000     0.051      
O        O      0.645450000000     0.484533333333     0.704850000000     0.051      
O        O      0.617066666667     0.582600000000     0.533450000000     0.051      
O        O      0.583650000000     0.605633333333     0.570150000000     0.051      
O        O      0.552983333333     0.339566666667     0.977200000000     0.051      
O        O      0.506800000000     0.625866666667     0.971350000000     0.051      
O        O      0.645450000000     0.348800000000     0.954850000000     0.051      
O        O      0.617066666667     0.584066666667     0.783450000000     0.051      
O        O      0.583650000000     0.561033333333     0.820150000000     0.051      
O        O      0.613683333333     0.506233333333     0.772800000000     0.051      
O        O      0.659866666667     0.459200000000     0.778650000000     0.051      
O        O      0.521216666667     0.515466666667     0.795150000000     0.051      
O        O      0.549600000000     0.417400000000     0.966550000000     0.051      
O        O      0.583016666667     0.394366666667     0.929850000000     0.051      
O        O      0.613683333333     0.993766666667     0.022800000000     0.051      
O        O      0.659866666667     0.707466666667     0.028650000000     0.051      
O        O      0.521216666667     0.984533333333     0.045150000000     0.051      
O        O      0.549600000000     0.749266666667     0.216550000000     0.051      
O        O      0.583016666667     0.772300000000     0.179850000000     0.051      
O        O      0.552983333333     0.827100000000     0.227200000000     0.051      
O        O      0.506800000000     0.874133333333     0.221350000000     0.051      
O        O      0.645450000000     0.817866666667     0.204850000000     0.051      
O        O      0.617066666667     0.915933333333     0.033450000000     0.051      
O        O      0.583650000000     0.938966666667     0.070150000000     0.051      
O        O      0.552983333333     0.672900000000     0.477200000000     0.051      
O        O      0.506800000000     0.959200000000     0.471350000000     0.051      
O        O      0.645450000000     0.682133333333     0.454850000000     0.051      
O        O      0.617066666667     0.917400000000     0.283450000000     0.051      
O        O      0.583650000000     0.894366666667     0.320150000000     0.051      
O        O      0.613683333333     0.839566666667     0.272800000000     0.051      
O        O      0.659866666667     0.792533333333     0.278650000000     0.051      
O        O      0.521216666667     0.848800000000     0.295150000000     0.051      
O        O      0.549600000000     0.750733333333     0.466550000000     0.051      
O        O      0.583016666667     0.727700000000     0.429850000000     0.051      
O        O      0.613683333333     0.993766666667     0.522800000000     0.051      
O        O      0.659866666667     0.707466666667     0.528650000000     0.051      
O        O      0.521216666667     0.984533333333     0.545150000000     0.051      
O        O      0.549600000000     0.749266666667     0.716550000000     0.051      
O        O      0.583016666667     0.772300000000     0.679850000000     0.051      
O        O      0.552983333333     0.827100000000     0.727200000000     0.051      
O        O      0.506800000000     0.874133333333     0.721350000000     0.051      
O        O      0.645450000000     0.817866666667     0.704850000000     0.051      
O        O      0.617066666667     0.915933333333     0.533450000000     0.051      
O        O      0.583650000000     0.938966666667     0.570150000000     0.051      
O        O      0.552983333333     0.672900000000     0.977200000000     0.051      
O        O      0.506800000000     0.959200000000     0.971350000000     0.051      
O        O      0.645450000000     0.682133333333     0.954850000000     0.051      
O        O      0.617066666667     0.917400000000     0.783450000000     0.051      
O        O      0.583650000000     0.894366666667     0.820150000000     0.051      
O        O      0.613683333333     0.839566666667     0.772800000000     0.051      
O        O      0.659866666667     0.792533333333     0.778650000000     0.051      
O        O      0.521216666667     0.848800000000     0.795150000000     0.051      
O        O      0.549600000000     0.750733333333     0.966550000000     0.051      
O        O      0.583016666667     0.727700000000     0.929850000000     0.051      
O        O      0.780350000000     0.327100000000     0.022800000000     0.051      
O        O      0.826533333333     0.040800000000     0.028650000000     0.051      
O        O      0.687883333333     0.317866666667     0.045150000000     0.051      
O        O      0.716266666667     0.082600000000     0.216550000000     0.051      
O        O      0.749683333333     0.105633333333     0.179850000000     0.051      
O        O      0.719650000000     0.160433333333     0.227200000000     0.051      
O        O      0.673466666667     0.207466666667     0.221350000000     0.051      
O        O      0.812116666667     0.151200000000     0.204850000000     0.051      
O        O      0.783733333333     0.249266666667     0.033450000000     0.051      
O        O      0.750316666667     0.272300000000     0.070150000000     0.051      
O        O      0.719650000000     0.006233333333     0.477200000000     0.051      
O        O      0.673466666667     0.292533333333     0.471350000000     0.051      
O        O      0.812116666667     0.015466666667     0.454850000000     0.051      
O        O      0.783733333333     0.250733333333     0.283450000000     0.051      
O        O      0.750316666667     0.227700000000     0.320150000000     0.051      
O        O      0.780350000000     0.172900000000     0.272800000000     0.051      
O        O      0.826533333333     0.125866666667     0.278650000000     0.051      
O        O      0.687883333333     0.182133333333     0.295150000000     0.051      
O        O      0.716266666667     0.084066666667     0.466550000000     0.051      
O        O      0.749683333333     0.061033333333     0.429850000000     0.051      
O        O      0.780350000000     0.327100000000     0.522800000000     0.051      
O        O      0.826533333333     0.040800000000     0.528650000000     0.051      
O        O      0.687883333333     0.317866666667     0.545150000000     0.051      
O        O      0.716266666667     0.082600000000     0.716550000000     0.051      
O        O      0.749683333333     0.105633333333     0.679850000000     0.051      
O        O      0.719650000000     0.160433333333     0.727200000000     0.051      
O        O      0.673466666667     0.207466666667     0.721350000000     0.051      
O        O      0.812116666667     0.151200000000     0.704850000000     0.051      
O        O      0.783733333333     0.249266666667     0.533450000000     0.051      
O        O      0.750316666667     0.272300000000     0.570150000000     0.051      
O        O      0.719650000000     0.006233333333     0.977200000000     0.051      
O        O      0.673466666667     0.292533333333     0.971350000000     0.051      
O        O      0.812116666667     0.015466666667     0.954850000000     0.051      
O        O      0.783733333333     0.250733333333     0.783450000000     0.051      
O        O      0.750316666667     0.227700000000     0.820150000000     0.051      
O        O      0.780350000000     0.172900000000     0.772800000000     0.051      
O        O      0.826533333333     0.125866666667     0.778650000000     0.051      
O        O      0.687883333333     0.182133333333     0.795150000000     0.051      
O        O      0.716266666667     0.084066666667     0.966550000000     0.051      
O        O      0.749683333333     0.061033333333     0.929850000000     0.051      
O        O      0.780350000000     0.660433333333     0.022800000000     0.051      
O        O      0.826533333333     0.374133333333     0.028650000000     0.051      
O        O      0.687883333333     0.651200000000     0.045150000000     0.051      
O        O      0.716266666667     0.415933333333     0.216550000000     0.051      
O        O      0.749683333333     0.438966666667     0.179850000000     0.051      
O        O      0.719650000000     0.493766666667     0.227200000000     0.051      
O        O      0.673466666667     0.540800000000     0.221350000000     0.051      
O        O      0.812116666667     0.484533333333     0.204850000000     0.051      
O        O      0.783733333333     0.582600000000     0.033450000000     0.051      
O        O      0.750316666667     0.605633333333     0.070150000000     0.051      
O        O      0.719650000000     0.339566666667     0.477200000000     0.051      
O        O      0.673466666667     0.625866666667     0.471350000000     0.051      
O        O      0.812116666667     0.348800000000     0.454850000000     0.051      
O        O      0.783733333333     0.584066666667     0.283450000000     0.051      
O        O      0.750316666667     0.561033333333     0.320150000000     0.051      
O        O      0.780350000000     0.506233333333     0.272800000000     0.051      
O        O      0.826533333333     0.459200000000     0.278650000000     0.051      
O        O      0.687883333333     0.515466666667     0.295150000000     0.051      
O        O      0.716266666667     0.417400000000     0.466550000000     0.051      
O        O      0.749683333333     0.394366666667     0.429850000000     0.051      
O        O      0.780350000000     0.660433333333     0.522800000000     0.051      
O        O      0.826533333333     0.374133333333     0.528650000000     0.051      
O        O      0.687883333333     0.651200000000     0.545150000000     0.051      
O        O      0.716266666667     0.415933333333     0.716550000000     0.051      
O        O      0.749683333333     0.438966666667     0.679850000000     0.051      
O        O      0.719650000000     0.493766666667     0.727200000000     0.051      
O        O      0.673466666667     0.540800000000     0.721350000000     0.051      
O        O      0.812116666667     0.484533333333     0.704850000000     0.051      
O        O      0.783733333333     0.582600000000     0.533450000000     0.051      
O        O      0.750316666667     0.605633333333     0.570150000000     0.051      
O        O      0.719650000000     0.339566666667     0.977200000000     0.051      
O        O      0.673466666667     0.625866666667     0.971350000000     0.051      
O        O      0.812116666667     0.348800000000     0.954850000000     0.051      
O        O      0.783733333333     0.584066666667     0.783450000000     0.051      
O        O      0.750316666667     0.561033333333     0.820150000000     0.051      
O        O      0.780350000000     0.506233333333     0.772800000000     0.051      
O        O      0.826533333333     0.459200000000     0.778650000000     0.051      
O        O      0.687883333333     0.515466666667     0.795150000000     0.051      
O        O      0.716266666667     0.417400000000     0.966550000000     0.051      
O        O      0.749683333333     0.394366666667     0.929850000000     0.051      
O        O      0.780350000000     0.993766666667     0.022800000000     0.051      
O        O      0.826533333333     0.707466666667     0.028650000000     0.051      
O        O      0.687883333333     0.984533333333     0.045150000000     0.051      
O        O      0.716266666667     0.749266666667     0.216550000000     0.051      
O        O      0.749683333333     0.772300000000     0.179850000000     0.051      
O        O      0.719650000000     0.827100000000     0.227200000000     0.051      
O        O      0.673466666667     0.874133333333     0.221350000000     0.051      
O        O      0.812116666667     0.817866666667     0.204850000000     0.051      
O        O      0.783733333333     0.915933333333     0.033450000000     0.051      
O        O      0.750316666667     0.938966666667     0.070150000000     0.051      
O        O      0.719650000000     0.672900000000     0.477200000000     0.051      
O        O      0.673466666667     0.959200000000     0.471350000000     0.051      
O        O      0.812116666667     0.682133333333     0.454850000000     0.051      
O        O      0.783733333333     0.917400000000     0.283450000000     0.051      
O        O      0.750316666667     0.894366666667     0.320150000000     0.051      
O        O      0.780350000000     0.839566666667     0.272800000000     0.051      
O        O      0.826533333333     0.792533333333     0.278650000000     0.051      
O        O      0.687883333333     0.848800000000     0.295150000000     0.051      
O        O      0.716266666667     0.750733333333     0.466550000000     0.051      
O        O      0.749683333333     0.727700000000     0.429850000000     0.051      
O        O      0.780350000000     0.993766666667     0.522800000000     0.051      
O        O      0.826533333333     0.707466666667     0.528650000000     0.051      
O        O      0.687883333333     0.984533333333     0.545150000000     0.051      
O        O      0.716266666667     0.749266666667     0.716550000000     0.051      
O        O      0.749683333333     0.772300000000     0.679850000000     0.051      
O        O      0.719650000000     0.827100000000     0.727200000000     0.051      
O        O      0.673466666667     0.874133333333     0.721350000000     0.051      
O        O      0.812116666667     0.817866666667     0.704850000000     0.051      
O        O      0.783733333333     0.915933333333     0.533450000000     0.051      
O        O      0.750316666667     0.938966666667     0.570150000000     0.051      
O        O      0.719650000000     0.672900000000     0.977200000000     0.051      
O        O      0.673466666667     0.959200000000     0.971350000000     0.051      
O        O      0.812116666667     0.682133333333     0.954850000000     0.051      
O        O      0.783733333333     0.917400000000     0.783450000000     0.051      
O        O      0.750316666667     0.894366666667     0.820150000000     0.051      
O        O      0.780350000000     0.839566666667     0.772800000000     0.051      
O        O      0.826533333333     0.792533333333     0.778650000000     0.051      
O        O      0.687883333333     0.848800000000     0.795150000000     0.051      
O        O      0.716266666667     0.750733333333     0.966550000000     0.051      
O        O      0.749683333333     0.727700000000     0.929850000000     0.051      
O        O      0.947016666667     0.327100000000     0.022800000000     0.051      
O        O      0.993200000000     0.040800000000     0.028650000000     0.051      
O        O      0.854550000000     0.317866666667     0.045150000000     0.051      
O        O      0.882933333333     0.082600000000     0.216550000000     0.051      
O        O      0.916350000000     0.105633333333     0.179850000000     0.051      
O        O      0.886316666667     0.160433333333     0.227200000000     0.051      
O        O      0.840133333333     0.207466666667     0.221350000000     0.051      
O        O      0.978783333333     0.151200000000     0.204850000000     0.051      
O        O      0.950400000000     0.249266666667     0.033450000000     0.051      
O        O      0.916983333333     0.272300000000     0.070150000000     0.051      
O        O      0.886316666667     0.006233333333     0.477200000000     0.051      
O        O      0.840133333333     0.292533333333     0.471350000000     0.051      
O        O      0.978783333333     0.015466666667     0.454850000000     0.051      
O        O      0.950400000000     0.250733333333     0.283450000000     0.051      
O        O      0.916983333333     0.227700000000     0.320150000000     0.051      
O        O      0.947016666667     0.172900000000     0.272800000000     0.051      
O        O      0.993200000000     0.125866666667     0.278650000000     0.051      
O        O      0.854550000000     0.182133333333     0.295150000000     0.051      
O        O      0.882933333333     0.084066666667     0.466550000000     0.051      
O        O      0.916350000000     0.061033333333     0.429850000000     0.051      
O        O      0.947016666667     0.327100000000     0.522800000000     0.051      
O        O      0.993200000000     0.040800000000     0.528650000000     0.051      
O        O      0.854550000000     0.317866666667     0.545150000000     0.051      
O        O      0.882933333333     0.082600000000     0.716550000000     0.051      
O        O      0.916350000000     0.105633333333     0.679850000000     0.051      
O        O      0.886316666667     0.160433333333     0.727200000000     0.051      
O        O      0.840133333333     0.207466666667     0.721350000000     0.051      
O        O      0.978783333333     0.151200000000     0.704850000000     0.051      
O        O      0.950400000000     0.249266666667     0.533450000000     0.051      
O        O      0.916983333333     0.272300000000     0.570150000000     0.051      
O        O      0.886316666667     0.006233333333     0.977200000000     0.051      
O        O      0.840133333333     0.292533333333     0.971350000000     0.051      
O        O      0.978783333333     0.015466666667     0.954850000000     0.051      
O        O      0.950400000000     0.250733333333     0.783450000000     0.051      
O        O      0.916983333333     0.227700000000     0.820150000000     0.051      
O        O      0.947016666667     0.172900000000     0.772800000000     0.051      
O        O      0.993200000000     0.125866666667     0.778650000000     0.051      
O        O      0.854550000000     0.182133333333     0.795150000000     0.051      
O        O      0.882933333333     0.084066666667     0.966550000000     0.051      
O        O      0.916350000000     0.061033333333     0.929850000000     0.051      
O        O      0.947016666667     0.660433333333     0.022800000000     0.051      
O        O      0.993200000000     0.374133333333     0.028650000000     0.051      
O        O      0.854550000000     0.651200000000     0.045150000000     0.051      
O        O      0.882933333333     0.415933333333     0.216550000000     0.051      
O        O      0.916350000000     0.438966666667     0.179850000000     0.051      
O        O      0.886316666667     0.493766666667     0.227200000000     0.051      
O        O      0.840133333333     0.540800000000     0.221350000000     0.051      
O        O      0.978783333333     0.484533333333     0.204850000000     0.051      
O        O      0.950400000000     0.582600000000     0.033450000000     0.051      
O        O      0.916983333333     0.605633333333     0.070150000000     0.051      
O        O      0.886316666667     0.339566666667     0.477200000000     0.051      
O        O      0.840133333333     0.625866666667     0.471350000000     0.051      
O        O      0.978783333333     0.348800000000     0.454850000000     0.051      
O        O      0.950400000000     0.584066666667     0.283450000000     0.051      
O        O      0.916983333333     0.561033333333     0.320150000000     0.051      
O        O      0.947016666667     0.506233333333     0.272800000000     0.051      
O        O      0.993200000000     0.459200000000     0.278650000000     0.051      
O        O      0.854550000000     0.515466666667     0.295150000000     0.051      
O        O      0.882933333333     0.417400000000     0.466550000000     0.051      
O        O      0.916350000000     0.394366666667     0.429850000000     0.051      
O        O      0.947016666667     0.660433333333     0.522800000000     0.051      
O        O      0.993200000000     0.374133333333     0.528650000000     0.051      
O        O      0.854550000000     0.651200000000     0.545150000000     0.051      
O        O      0.882933333333     0.415933333333     0.716550000000     0.051      
O        O      0.916350000000     0.438966666667     0.679850000000     0.051      
O        O      0.886316666667     0.493766666667     0.727200000000     0.051      
O        O      0.840133333333     0.540800000000     0.721350000000     0.051      
O        O      0.978783333333     0.484533333333     0.704850000000     0.051      
O        O      0.950400000000     0.582600000000     0.533450000000     0.051      
O        O      0.916983333333     0.605633333333     0.570150000000     0.051      
O        O      0.886316666667     0.339566666667     0.977200000000     0.051      
O        O      0.840133333333     0.625866666667     0.971350000000     0.051      
O        O      0.978783333333     0.348800000000     0.954850000000     0.051      
O        O      0.950400000000     0.584066666667     0.783450000000     0.051      
O        O      0.916983333333     0.561033333333     0.820150000000     0.051      
O        O      0.947016666667     0.506233333333     0.772800000000     0.051      
O        O      0.993200000000     0.459200000000     0.778650000000     0.051      
O        O      0.854550000000     0.515466666667     0.795150000000     0.051      
O        O      0.882933333333     0.417400000000     0.966550000000     0.051      
O        O      0.916350000000     0.394366666667     0.929850000000     0.051      
O        O      0.947016666667     0.993766666667     0.022800000000     0.051      
O        O      0.993200000000     0.707466666667     0.028650000000     0.051      
O        O      0.854550000000     0.984533333333     0.045150000000     0.051      
O        O      0.882933333333     0.749266666667     0.216550000000     0.051      
O        O      0.916350000000     0.772300000000     0.179850000000     0.051      
O        O      0.886316666667     0.827100000000     0.227200000000     0.051      
O        O      0.840133333333     0.874133333333     0.221350000000     0.051      
O        O      0.978783333333     0.817866666667     0.204850000000     0.051      
O        O      0.950400000000     0.915933333333     0.033450000000     0.051      
O        O      0.916983333333     0.938966666667     0.070150000000     0.051      
O        O      0.886316666667     0.672900000000     0.477200000000     0.051      
O        O      0.840133333333     0.959200000000     0.471350000000     0.051      
O        O      0.978783333333     0.682133333333     0.454850000000     0.051      
O        O      0.950400000000     0.917400000000     0.283450000000     0.051      
O        O      0.916983333333     0.894366666667     0.320150000000     0.051      
O        O      0.947016666667     0.839566666667     0.272800000000     0.051      
O        O      0.993200000000     0.792533333333     0.278650000000     0.051      
O        O      0.854550000000     0.848800000000     0.295150000000     0.051      
O        O      0.882933333333     0.750733333333     0.466550000000     0.051      
O        O      0.916350000000     0.727700000000     0.429850000000     0.051      
O        O      0.947016666667     0.993766666667     0.522800000000     0.051      
O        O      0.993200000000     0.707466666667     0.528650000000     0.051      
O        O      0.854550000000     0.984533333333     0.545150000000     0.051      
O        O      0.882933333333     0.749266666667     0.716550000000     0.051      
O        O      0.916350000000     0.772300000000     0.679850000000     0.051      
O        O      0.886316666667     0.827100000000     0.727200000000     0.051      
O        O      0.840133333333     0.874133333333     0.721350000000     0.051      
O        O      0.978783333333     0.817866666667     0.704850000000     0.051      
O        O      0.950400000000     0.915933333333     0.533450000000     0.051      
O        O      0.916983333333     0.938966666667     0.570150000000     0.051      
O        O      0.886316666667     0.672900000000     0.977200000000     0.051      
O        O      0.840133333333     0.959200000000     0.971350000000     0.051      
O        O      0.978783333333     0.682133333333     0.954850000000     0.051      
O        O      0.950400000000     0.917400000000     0.783450000000     0.051      
O        O      0.916983333333     0.894366666667     0.820150000000     0.051      
O        O      0.947016666667     0.839566666667     0.772800000000     0.051      
O        O      0.993200000000     0.792533333333     0.778650000000     0.051      
O        O      0.854550000000     0.848800000000     0.795150000000     0.051      
O        O      0.882933333333     0.750733333333     0.966550000000     0.051      
O        O      0.916350000000     0.727700000000     0.929850000000     0.051      


