data_SISQIW_clean

_audit_creation_method RASPA-1.0
_audit_creation_date 2025-9-8
_audit_author_name ''

_cell_length_a    32.805
_cell_length_b    35.83
_cell_length_c    33.906
_cell_angle_alpha 89.832
_cell_angle_beta  90
_cell_angle_gamma 90
_cell_volume      39853

_symmetry_cell_setting          triclinic
_symmetry_space_group_name_Hall 'P 1'
_symmetry_space_group_name_H-M  'P 1'
_symmetry_Int_Tables_number     1

_symmetry_equiv_pos_as_xyz 'x,y,z'

loop_
_atom_site_label
_atom_site_type_symbol
_atom_site_fract_x
_atom_site_fract_y
_atom_site_fract_z
_atom_site_charge
Nd       Nd     0.202633333333     0.414445000000     0.061870000000     2.301      
Nd       Nd     0.318363333333     0.166390000000     0.236365000000     2.163      
Nd       Nd     0.137090000000     0.415515000000     0.454460000000     2.107      
Nd       Nd     0.014970000000     0.166390000000     0.486365000000     1.966      
Nd       Nd     0.046643333333     0.162700000000     0.130750000000     2.311      
Nd       Nd     0.130700000000     0.414445000000     0.311870000000     2.289      
Nd       Nd     0.286690000000     0.162700000000     0.380750000000     2.286      
Nd       Nd     0.196243333333     0.415515000000     0.204460000000     2.323      
H        H      0.245200000000     0.005800000000     0.037900000000     0.016      
H        H      0.263733333333     0.080800000000     0.206350000000     0.009      
H        H      0.088133333333     0.005800000000     0.287900000000     0.032      
H        H      0.189933333333     0.393150000000     0.383400000000     0.207      
H        H      0.053366666667     0.066700000000     0.277950000000     0.027      
H        H      0.190066666667     0.436500000000     0.382900000000     0.201      
H        H      0.200200000000     0.013250000000     0.357650000000     0.05       
H        H      0.080266666667     0.331600000000     0.486350000000    -0.122      
H        H      0.287466666667     0.271950000000     0.244750000000     0.028      
H        H      0.092500000000     0.255800000000     0.152050000000     0.012      
H        H      0.143400000000     0.393150000000     0.133400000000     0.212      
H        H      0.029433333333     0.258350000000     0.326950000000     0.044      
H        H      0.069600000000     0.080800000000     0.456350000000    -0.018      
H        H      0.240833333333     0.255800000000     0.402050000000     0.005      
H        H      0.143266666667     0.436500000000     0.132900000000     0.207      
H        H      0.279966666667     0.066700000000     0.027950000000    -0.001      
H        H      0.133133333333     0.013250000000     0.107650000000     0.05       
H        H      0.303900000000     0.258350000000     0.076950000000     0.062      
H        H      0.224233333333     0.022200000000     0.198150000000     0.041      
H        H      0.206133333333     0.315600000000     0.409450000000     0.046      
H        H      0.103966666667     0.075900000000     0.112950000000     0.006      
H        H      0.109100000000     0.022200000000     0.448150000000     0.021      
H        H      0.253066666667     0.331600000000     0.236350000000    -0.006      
H        H      0.267833333333     0.318650000000     0.070750000000     0.029      
H        H      0.045866666667     0.271950000000     0.494750000000    -0.09       
H        H      0.229366666667     0.075900000000     0.362950000000     0.003      
H        H      0.065500000000     0.318650000000     0.320750000000     0.011      
H        H      0.127200000000     0.315600000000     0.159450000000     0.035      
C        C      0.079066666667     0.070100000000     0.058350000000    -0.174      
C        C      0.254266666667     0.070100000000     0.308350000000    -0.178      
C        C      0.062933333333     0.225400000000     0.058450000000     0.555      
C        C      0.242233333333     0.270300000000     0.424750000000     0.028      
C        C      0.270400000000     0.225400000000     0.308450000000     0.545      
C        C      0.100566666667     0.060500000000     0.091150000000     0.04       
C        C      0.271500000000     0.105400000000     0.457150000000     0.553      
C        C      0.232766666667     0.060500000000     0.341150000000     0.037      
C        C      0.300466666667     0.219600000000     0.149000000000     0.464      
C        C      0.099300000000     0.354550000000     0.384800000000     0.512      
C        C      0.230866666667     0.321750000000     0.463300000000    -0.102      
C        C      0.060233333333     0.106900000000     0.049800000000     0.51       
C        C      0.234033333333     0.354550000000     0.134800000000     0.521      
C        C      0.264200000000     0.054900000000     0.008900000000     0.173      
C        C      0.253266666667     0.317800000000     0.127250000000    -0.179      
C        C      0.211766666667     0.470100000000     0.289900000000     0.46       
C        C      0.102466666667     0.321750000000     0.213300000000    -0.149      
C        C      0.065100000000     0.281400000000     0.012200000000     0.153      
C        C      0.121566666667     0.470100000000     0.039900000000     0.456      
C        C      0.100233333333     0.477950000000     0.382100000000     0.478      
C        C      0.110566666667     0.305200000000     0.178750000000    -0.003      
C        C      0.233100000000     0.477950000000     0.132100000000     0.491      
C        C      0.241666666667     0.032100000000     0.179200000000    -0.012      
C        C      0.221333333333     0.323650000000     0.287500000000    -0.168      
C        C      0.196233333333     0.356850000000     0.292350000000     0.458      
C        C      0.264000000000     0.066600000000     0.183450000000     0.014      
C        C      0.285100000000     0.075950000000     0.151200000000    -0.142      
C        C      0.080066666667     0.317800000000     0.377250000000    -0.177      
C        C      0.283766666667     0.255800000000     0.133900000000    -0.133      
C        C      0.112000000000     0.323650000000     0.037500000000    -0.198      
C        C      0.268233333333     0.281400000000     0.262200000000    -0.001      
C        C      0.132266666667     0.473400000000     0.226000000000     0.437      
C        C      0.218033333333     0.359200000000     0.478450000000     0.323      
C        C      0.226000000000     0.006900000000     0.303700000000    -0.117      
C        C      0.257200000000     0.068700000000     0.473100000000    -0.309      
C        C      0.091100000000     0.270300000000     0.174750000000     0.02       
C        C      0.107333333333     0.006900000000     0.053700000000    -0.116      
C        C      0.273100000000     0.106900000000     0.299800000000     0.516      
C        C      0.043933333333     0.269850000000     0.347100000000    -0.024      
C        C      0.115300000000     0.359200000000     0.228450000000     0.487      
C        C      0.084933333333     0.315650000000     0.007600000000     0.164      
C        C      0.201066666667     0.473400000000     0.476000000000     0.315      
C        C      0.063966666667     0.305350000000     0.344300000000     0.039      
C        C      0.311800000000     0.109400000000     0.145050000000     0.437      
C        C      0.117166666667     0.024200000000     0.088100000000    -0.018      
C        C      0.083733333333     0.015750000000     0.393100000000    -0.121      
C        C      0.070666666667     0.260350000000     0.206700000000    -0.167      
C        C      0.224266666667     0.008150000000     0.481750000000    -0.208      
C        C      0.222766666667     0.305200000000     0.428750000000    -0.043      
C        C      0.216166666667     0.024200000000     0.338100000000    -0.024      
C        C      0.069133333333     0.054900000000     0.258900000000     0.025      
C        C      0.289400000000     0.269850000000     0.097100000000    -0.017      
C        C      0.137100000000     0.356850000000     0.042350000000     0.472      
C        C      0.091666666667     0.032100000000     0.429200000000    -0.025      
C        C      0.076133333333     0.068700000000     0.223100000000    -0.169      
C        C      0.089000000000     0.019400000000     0.264500000000    -0.014      
C        C      0.249600000000     0.015750000000     0.143100000000    -0.123      
C        C      0.109066666667     0.008150000000     0.231750000000    -0.122      
C        C      0.021533333333     0.109400000000     0.395050000000     0.428      
C        C      0.048233333333     0.075950000000     0.401200000000    -0.146      
C        C      0.077766666667     0.263950000000     0.045400000000    -0.202      
C        C      0.032866666667     0.219600000000     0.399000000000     0.457      
C        C      0.244333333333     0.019400000000     0.014500000000     0.07       
C        C      0.269366666667     0.305350000000     0.094300000000     0.046      
C        C      0.262666666667     0.260350000000     0.456700000000    -0.164      
C        C      0.049566666667     0.255800000000     0.383900000000    -0.133      
C        C      0.069333333333     0.066600000000     0.433450000000     0.009      
C        C      0.047166666667     0.226050000000     0.214800000000     0.474      
C        C      0.061833333333     0.105400000000     0.207150000000     0.523      
C        C      0.255566666667     0.263950000000     0.295400000000    -0.165      
C        C      0.248400000000     0.315650000000     0.257600000000     0.017      
C        C      0.286166666667     0.226050000000     0.464800000000     0.471      
S        S      0.106266666667     0.040655000000     0.194835000000     0.082      
S        S      0.227066666667     0.040655000000     0.444835000000     0.101      
S        S      0.077700000000     0.034815000000     0.025060000000     0.147      
S        S      0.075333333333     0.285270000000     0.414025000000     0.043      
S        S      0.258000000000     0.285270000000     0.164025000000     0.069      
S        S      0.222233333333     0.289345000000     0.322100000000     0.076      
S        S      0.054366666667     0.042940000000     0.364125000000     0.064      
S        S      0.278966666667     0.042940000000     0.114125000000     0.077      
S        S      0.072700000000     0.293855000000     0.242760000000     0.072      
S        S      0.255633333333     0.034815000000     0.275060000000     0.081      
S        S      0.260633333333     0.293855000000     0.492760000000    -0.022      
S        S      0.111100000000     0.289345000000     0.072100000000     0.111      
O        O      0.047366666667     0.199850000000     0.188500000000    -0.643      
O        O      0.139066666667     0.380600000000     0.015100000000    -0.57       
O        O      0.068600000000     0.132350000000     0.073800000000    -0.602      
O        O      0.117000000000     0.359600000000     0.417200000000    -0.54       
O        O      0.113300000000     0.461200000000     0.004850000000    -0.468      
O        O      0.107533333333     0.367450000000     0.262850000000    -0.547      
O        O      0.295033333333     0.109950000000     0.270100000000    -0.553      
O        O      0.038566666667     0.212650000000     0.434850000000    -0.508      
O        O      0.264133333333     0.113300000000     0.422600000000    -0.608      
O        O      0.264500000000     0.216850000000     0.343850000000    -0.576      
O        O      0.198600000000     0.379150000000     0.453650000000    -0.513      
O        O      0.182900000000     0.468850000000     0.443000000000    -0.479      
O        O      0.150433333333     0.468850000000     0.193000000000    -0.508      
O        O      0.319266666667     0.199250000000     0.124650000000    -0.544      
O        O      0.220033333333     0.461200000000     0.254850000000    -0.542      
O        O      0.172300000000     0.414900000000     0.383650000000    -0.629      
O        O      0.004833333333     0.114200000000     0.362500000000    -0.49       
O        O      0.316000000000     0.131200000000     0.173750000000    -0.606      
O        O      0.199333333333     0.449900000000     0.002100000000    -0.532      
O        O      0.134733333333     0.379150000000     0.203650000000    -0.547      
O        O      0.014066666667     0.199250000000     0.374650000000    -0.546      
O        O      0.237900000000     0.378400000000     0.108100000000    -0.606      
O        O      0.069200000000     0.113300000000     0.172600000000    -0.597      
O        O      0.139933333333     0.450400000000     0.063600000000    -0.543      
O        O      0.017333333333     0.131200000000     0.423750000000    -0.593      
O        O      0.225800000000     0.367450000000     0.012850000000    -0.426      
O        O      0.102800000000     0.455300000000     0.410250000000    -0.589      
O        O      0.225400000000     0.471250000000     0.097250000000    -0.558      
O        O      0.028566666667     0.222950000000     0.245250000000    -0.509      
O        O      0.177166666667     0.360600000000     0.324550000000    -0.491      
O        O      0.194266666667     0.380600000000     0.265100000000    -0.635      
O        O      0.216333333333     0.359600000000     0.167200000000    -0.551      
O        O      0.134000000000     0.449900000000     0.252100000000    -0.651      
O        O      0.291066666667     0.125600000000     0.481100000000    -0.594      
O        O      0.193400000000     0.450400000000     0.313600000000    -0.552      
O        O      0.328500000000     0.114200000000     0.112500000000    -0.488      
O        O      0.068833333333     0.216850000000     0.093850000000    -0.571      
O        O      0.287266666667     0.206150000000     0.284100000000    -0.612      
O        O      0.038300000000     0.109950000000     0.020100000000    -0.476      
O        O      0.095433333333     0.378400000000     0.358100000000    -0.605      
O        O      0.046066666667     0.206150000000     0.034100000000    -0.539      
O        O      0.304766666667     0.222950000000     0.495250000000    -0.529      
O        O      0.042266666667     0.125600000000     0.231100000000    -0.569      
O        O      0.285966666667     0.199850000000     0.438500000000    -0.637      
O        O      0.264733333333     0.132350000000     0.323800000000    -0.62       
O        O      0.230533333333     0.455300000000     0.160250000000    -0.6        
O        O      0.107933333333     0.471250000000     0.347250000000    -0.559      
O        O      0.294766666667     0.212650000000     0.184850000000    -0.514      
O        O      0.161033333333     0.414900000000     0.133650000000    -0.644      
O        O      0.156166666667     0.360600000000     0.074550000000    -0.49       
Nd       Nd     0.202633333333     0.414445000000     0.561870000000     2.301      
Nd       Nd     0.318363333333     0.166390000000     0.736365000000     2.163      
Nd       Nd     0.137090000000     0.415515000000     0.954460000000     2.107      
Nd       Nd     0.014970000000     0.166390000000     0.986365000000     1.966      
Nd       Nd     0.046643333333     0.162700000000     0.630750000000     2.311      
Nd       Nd     0.130700000000     0.414445000000     0.811870000000     2.289      
Nd       Nd     0.286690000000     0.162700000000     0.880750000000     2.286      
Nd       Nd     0.196243333333     0.415515000000     0.704460000000     2.323      
H        H      0.245200000000     0.005800000000     0.537900000000     0.016      
H        H      0.263733333333     0.080800000000     0.706350000000     0.009      
H        H      0.088133333333     0.005800000000     0.787900000000     0.032      
H        H      0.189933333333     0.393150000000     0.883400000000     0.207      
H        H      0.053366666667     0.066700000000     0.777950000000     0.027      
H        H      0.190066666667     0.436500000000     0.882900000000     0.201      
H        H      0.200200000000     0.013250000000     0.857650000000     0.05       
H        H      0.080266666667     0.331600000000     0.986350000000    -0.122      
H        H      0.287466666667     0.271950000000     0.744750000000     0.028      
H        H      0.092500000000     0.255800000000     0.652050000000     0.012      
H        H      0.143400000000     0.393150000000     0.633400000000     0.212      
H        H      0.029433333333     0.258350000000     0.826950000000     0.044      
H        H      0.069600000000     0.080800000000     0.956350000000    -0.018      
H        H      0.240833333333     0.255800000000     0.902050000000     0.005      
H        H      0.143266666667     0.436500000000     0.632900000000     0.207      
H        H      0.279966666667     0.066700000000     0.527950000000    -0.001      
H        H      0.133133333333     0.013250000000     0.607650000000     0.05       
H        H      0.303900000000     0.258350000000     0.576950000000     0.062      
H        H      0.224233333333     0.022200000000     0.698150000000     0.041      
H        H      0.206133333333     0.315600000000     0.909450000000     0.046      
H        H      0.103966666667     0.075900000000     0.612950000000     0.006      
H        H      0.109100000000     0.022200000000     0.948150000000     0.021      
H        H      0.253066666667     0.331600000000     0.736350000000    -0.006      
H        H      0.267833333333     0.318650000000     0.570750000000     0.029      
H        H      0.045866666667     0.271950000000     0.994750000000    -0.09       
H        H      0.229366666667     0.075900000000     0.862950000000     0.003      
H        H      0.065500000000     0.318650000000     0.820750000000     0.011      
H        H      0.127200000000     0.315600000000     0.659450000000     0.035      
C        C      0.079066666667     0.070100000000     0.558350000000    -0.174      
C        C      0.254266666667     0.070100000000     0.808350000000    -0.178      
C        C      0.062933333333     0.225400000000     0.558450000000     0.555      
C        C      0.242233333333     0.270300000000     0.924750000000     0.028      
C        C      0.270400000000     0.225400000000     0.808450000000     0.545      
C        C      0.100566666667     0.060500000000     0.591150000000     0.04       
C        C      0.271500000000     0.105400000000     0.957150000000     0.553      
C        C      0.232766666667     0.060500000000     0.841150000000     0.037      
C        C      0.300466666667     0.219600000000     0.649000000000     0.464      
C        C      0.099300000000     0.354550000000     0.884800000000     0.512      
C        C      0.230866666667     0.321750000000     0.963300000000    -0.102      
C        C      0.060233333333     0.106900000000     0.549800000000     0.51       
C        C      0.234033333333     0.354550000000     0.634800000000     0.521      
C        C      0.264200000000     0.054900000000     0.508900000000     0.173      
C        C      0.253266666667     0.317800000000     0.627250000000    -0.179      
C        C      0.211766666667     0.470100000000     0.789900000000     0.46       
C        C      0.102466666667     0.321750000000     0.713300000000    -0.149      
C        C      0.065100000000     0.281400000000     0.512200000000     0.153      
C        C      0.121566666667     0.470100000000     0.539900000000     0.456      
C        C      0.100233333333     0.477950000000     0.882100000000     0.478      
C        C      0.110566666667     0.305200000000     0.678750000000    -0.003      
C        C      0.233100000000     0.477950000000     0.632100000000     0.491      
C        C      0.241666666667     0.032100000000     0.679200000000    -0.012      
C        C      0.221333333333     0.323650000000     0.787500000000    -0.168      
C        C      0.196233333333     0.356850000000     0.792350000000     0.458      
C        C      0.264000000000     0.066600000000     0.683450000000     0.014      
C        C      0.285100000000     0.075950000000     0.651200000000    -0.142      
C        C      0.080066666667     0.317800000000     0.877250000000    -0.177      
C        C      0.283766666667     0.255800000000     0.633900000000    -0.133      
C        C      0.112000000000     0.323650000000     0.537500000000    -0.198      
C        C      0.268233333333     0.281400000000     0.762200000000    -0.001      
C        C      0.132266666667     0.473400000000     0.726000000000     0.437      
C        C      0.218033333333     0.359200000000     0.978450000000     0.323      
C        C      0.226000000000     0.006900000000     0.803700000000    -0.117      
C        C      0.257200000000     0.068700000000     0.973100000000    -0.309      
C        C      0.091100000000     0.270300000000     0.674750000000     0.02       
C        C      0.107333333333     0.006900000000     0.553700000000    -0.116      
C        C      0.273100000000     0.106900000000     0.799800000000     0.516      
C        C      0.043933333333     0.269850000000     0.847100000000    -0.024      
C        C      0.115300000000     0.359200000000     0.728450000000     0.487      
C        C      0.084933333333     0.315650000000     0.507600000000     0.164      
C        C      0.201066666667     0.473400000000     0.976000000000     0.315      
C        C      0.063966666667     0.305350000000     0.844300000000     0.039      
C        C      0.311800000000     0.109400000000     0.645050000000     0.437      
C        C      0.117166666667     0.024200000000     0.588100000000    -0.018      
C        C      0.083733333333     0.015750000000     0.893100000000    -0.121      
C        C      0.070666666667     0.260350000000     0.706700000000    -0.167      
C        C      0.224266666667     0.008150000000     0.981750000000    -0.208      
C        C      0.222766666667     0.305200000000     0.928750000000    -0.043      
C        C      0.216166666667     0.024200000000     0.838100000000    -0.024      
C        C      0.069133333333     0.054900000000     0.758900000000     0.025      
C        C      0.289400000000     0.269850000000     0.597100000000    -0.017      
C        C      0.137100000000     0.356850000000     0.542350000000     0.472      
C        C      0.091666666667     0.032100000000     0.929200000000    -0.025      
C        C      0.076133333333     0.068700000000     0.723100000000    -0.169      
C        C      0.089000000000     0.019400000000     0.764500000000    -0.014      
C        C      0.249600000000     0.015750000000     0.643100000000    -0.123      
C        C      0.109066666667     0.008150000000     0.731750000000    -0.122      
C        C      0.021533333333     0.109400000000     0.895050000000     0.428      
C        C      0.048233333333     0.075950000000     0.901200000000    -0.146      
C        C      0.077766666667     0.263950000000     0.545400000000    -0.202      
C        C      0.032866666667     0.219600000000     0.899000000000     0.457      
C        C      0.244333333333     0.019400000000     0.514500000000     0.07       
C        C      0.269366666667     0.305350000000     0.594300000000     0.046      
C        C      0.262666666667     0.260350000000     0.956700000000    -0.164      
C        C      0.049566666667     0.255800000000     0.883900000000    -0.133      
C        C      0.069333333333     0.066600000000     0.933450000000     0.009      
C        C      0.047166666667     0.226050000000     0.714800000000     0.474      
C        C      0.061833333333     0.105400000000     0.707150000000     0.523      
C        C      0.255566666667     0.263950000000     0.795400000000    -0.165      
C        C      0.248400000000     0.315650000000     0.757600000000     0.017      
C        C      0.286166666667     0.226050000000     0.964800000000     0.471      
S        S      0.106266666667     0.040655000000     0.694835000000     0.082      
S        S      0.227066666667     0.040655000000     0.944835000000     0.101      
S        S      0.077700000000     0.034815000000     0.525060000000     0.147      
S        S      0.075333333333     0.285270000000     0.914025000000     0.043      
S        S      0.258000000000     0.285270000000     0.664025000000     0.069      
S        S      0.222233333333     0.289345000000     0.822100000000     0.076      
S        S      0.054366666667     0.042940000000     0.864125000000     0.064      
S        S      0.278966666667     0.042940000000     0.614125000000     0.077      
S        S      0.072700000000     0.293855000000     0.742760000000     0.072      
S        S      0.255633333333     0.034815000000     0.775060000000     0.081      
S        S      0.260633333333     0.293855000000     0.992760000000    -0.022      
S        S      0.111100000000     0.289345000000     0.572100000000     0.111      
O        O      0.047366666667     0.199850000000     0.688500000000    -0.643      
O        O      0.139066666667     0.380600000000     0.515100000000    -0.57       
O        O      0.068600000000     0.132350000000     0.573800000000    -0.602      
O        O      0.117000000000     0.359600000000     0.917200000000    -0.54       
O        O      0.113300000000     0.461200000000     0.504850000000    -0.468      
O        O      0.107533333333     0.367450000000     0.762850000000    -0.547      
O        O      0.295033333333     0.109950000000     0.770100000000    -0.553      
O        O      0.038566666667     0.212650000000     0.934850000000    -0.508      
O        O      0.264133333333     0.113300000000     0.922600000000    -0.608      
O        O      0.264500000000     0.216850000000     0.843850000000    -0.576      
O        O      0.198600000000     0.379150000000     0.953650000000    -0.513      
O        O      0.182900000000     0.468850000000     0.943000000000    -0.479      
O        O      0.150433333333     0.468850000000     0.693000000000    -0.508      
O        O      0.319266666667     0.199250000000     0.624650000000    -0.544      
O        O      0.220033333333     0.461200000000     0.754850000000    -0.542      
O        O      0.172300000000     0.414900000000     0.883650000000    -0.629      
O        O      0.004833333333     0.114200000000     0.862500000000    -0.49       
O        O      0.316000000000     0.131200000000     0.673750000000    -0.606      
O        O      0.199333333333     0.449900000000     0.502100000000    -0.532      
O        O      0.134733333333     0.379150000000     0.703650000000    -0.547      
O        O      0.014066666667     0.199250000000     0.874650000000    -0.546      
O        O      0.237900000000     0.378400000000     0.608100000000    -0.606      
O        O      0.069200000000     0.113300000000     0.672600000000    -0.597      
O        O      0.139933333333     0.450400000000     0.563600000000    -0.543      
O        O      0.017333333333     0.131200000000     0.923750000000    -0.593      
O        O      0.225800000000     0.367450000000     0.512850000000    -0.426      
O        O      0.102800000000     0.455300000000     0.910250000000    -0.589      
O        O      0.225400000000     0.471250000000     0.597250000000    -0.558      
O        O      0.028566666667     0.222950000000     0.745250000000    -0.509      
O        O      0.177166666667     0.360600000000     0.824550000000    -0.491      
O        O      0.194266666667     0.380600000000     0.765100000000    -0.635      
O        O      0.216333333333     0.359600000000     0.667200000000    -0.551      
O        O      0.134000000000     0.449900000000     0.752100000000    -0.651      
O        O      0.291066666667     0.125600000000     0.981100000000    -0.594      
O        O      0.193400000000     0.450400000000     0.813600000000    -0.552      
O        O      0.328500000000     0.114200000000     0.612500000000    -0.488      
O        O      0.068833333333     0.216850000000     0.593850000000    -0.571      
O        O      0.287266666667     0.206150000000     0.784100000000    -0.612      
O        O      0.038300000000     0.109950000000     0.520100000000    -0.476      
O        O      0.095433333333     0.378400000000     0.858100000000    -0.605      
O        O      0.046066666667     0.206150000000     0.534100000000    -0.539      
O        O      0.304766666667     0.222950000000     0.995250000000    -0.529      
O        O      0.042266666667     0.125600000000     0.731100000000    -0.569      
O        O      0.285966666667     0.199850000000     0.938500000000    -0.637      
O        O      0.264733333333     0.132350000000     0.823800000000    -0.62       
O        O      0.230533333333     0.455300000000     0.660250000000    -0.6        
O        O      0.107933333333     0.471250000000     0.847250000000    -0.559      
O        O      0.294766666667     0.212650000000     0.684850000000    -0.514      
O        O      0.161033333333     0.414900000000     0.633650000000    -0.644      
O        O      0.156166666667     0.360600000000     0.574550000000    -0.49       
Nd       Nd     0.202633333333     0.914445000000     0.061870000000     2.301      
Nd       Nd     0.318363333333     0.666390000000     0.236365000000     2.163      
Nd       Nd     0.137090000000     0.915515000000     0.454460000000     2.107      
Nd       Nd     0.014970000000     0.666390000000     0.486365000000     1.966      
Nd       Nd     0.046643333333     0.662700000000     0.130750000000     2.311      
Nd       Nd     0.130700000000     0.914445000000     0.311870000000     2.289      
Nd       Nd     0.286690000000     0.662700000000     0.380750000000     2.286      
Nd       Nd     0.196243333333     0.915515000000     0.204460000000     2.323      
H        H      0.245200000000     0.505800000000     0.037900000000     0.016      
H        H      0.263733333333     0.580800000000     0.206350000000     0.009      
H        H      0.088133333333     0.505800000000     0.287900000000     0.032      
H        H      0.189933333333     0.893150000000     0.383400000000     0.207      
H        H      0.053366666667     0.566700000000     0.277950000000     0.027      
H        H      0.190066666667     0.936500000000     0.382900000000     0.201      
H        H      0.200200000000     0.513250000000     0.357650000000     0.05       
H        H      0.080266666667     0.831600000000     0.486350000000    -0.122      
H        H      0.287466666667     0.771950000000     0.244750000000     0.028      
H        H      0.092500000000     0.755800000000     0.152050000000     0.012      
H        H      0.143400000000     0.893150000000     0.133400000000     0.212      
H        H      0.029433333333     0.758350000000     0.326950000000     0.044      
H        H      0.069600000000     0.580800000000     0.456350000000    -0.018      
H        H      0.240833333333     0.755800000000     0.402050000000     0.005      
H        H      0.143266666667     0.936500000000     0.132900000000     0.207      
H        H      0.279966666667     0.566700000000     0.027950000000    -0.001      
H        H      0.133133333333     0.513250000000     0.107650000000     0.05       
H        H      0.303900000000     0.758350000000     0.076950000000     0.062      
H        H      0.224233333333     0.522200000000     0.198150000000     0.041      
H        H      0.206133333333     0.815600000000     0.409450000000     0.046      
H        H      0.103966666667     0.575900000000     0.112950000000     0.006      
H        H      0.109100000000     0.522200000000     0.448150000000     0.021      
H        H      0.253066666667     0.831600000000     0.236350000000    -0.006      
H        H      0.267833333333     0.818650000000     0.070750000000     0.029      
H        H      0.045866666667     0.771950000000     0.494750000000    -0.09       
H        H      0.229366666667     0.575900000000     0.362950000000     0.003      
H        H      0.065500000000     0.818650000000     0.320750000000     0.011      
H        H      0.127200000000     0.815600000000     0.159450000000     0.035      
C        C      0.079066666667     0.570100000000     0.058350000000    -0.174      
C        C      0.254266666667     0.570100000000     0.308350000000    -0.178      
C        C      0.062933333333     0.725400000000     0.058450000000     0.555      
C        C      0.242233333333     0.770300000000     0.424750000000     0.028      
C        C      0.270400000000     0.725400000000     0.308450000000     0.545      
C        C      0.100566666667     0.560500000000     0.091150000000     0.04       
C        C      0.271500000000     0.605400000000     0.457150000000     0.553      
C        C      0.232766666667     0.560500000000     0.341150000000     0.037      
C        C      0.300466666667     0.719600000000     0.149000000000     0.464      
C        C      0.099300000000     0.854550000000     0.384800000000     0.512      
C        C      0.230866666667     0.821750000000     0.463300000000    -0.102      
C        C      0.060233333333     0.606900000000     0.049800000000     0.51       
C        C      0.234033333333     0.854550000000     0.134800000000     0.521      
C        C      0.264200000000     0.554900000000     0.008900000000     0.173      
C        C      0.253266666667     0.817800000000     0.127250000000    -0.179      
C        C      0.211766666667     0.970100000000     0.289900000000     0.46       
C        C      0.102466666667     0.821750000000     0.213300000000    -0.149      
C        C      0.065100000000     0.781400000000     0.012200000000     0.153      
C        C      0.121566666667     0.970100000000     0.039900000000     0.456      
C        C      0.100233333333     0.977950000000     0.382100000000     0.478      
C        C      0.110566666667     0.805200000000     0.178750000000    -0.003      
C        C      0.233100000000     0.977950000000     0.132100000000     0.491      
C        C      0.241666666667     0.532100000000     0.179200000000    -0.012      
C        C      0.221333333333     0.823650000000     0.287500000000    -0.168      
C        C      0.196233333333     0.856850000000     0.292350000000     0.458      
C        C      0.264000000000     0.566600000000     0.183450000000     0.014      
C        C      0.285100000000     0.575950000000     0.151200000000    -0.142      
C        C      0.080066666667     0.817800000000     0.377250000000    -0.177      
C        C      0.283766666667     0.755800000000     0.133900000000    -0.133      
C        C      0.112000000000     0.823650000000     0.037500000000    -0.198      
C        C      0.268233333333     0.781400000000     0.262200000000    -0.001      
C        C      0.132266666667     0.973400000000     0.226000000000     0.437      
C        C      0.218033333333     0.859200000000     0.478450000000     0.323      
C        C      0.226000000000     0.506900000000     0.303700000000    -0.117      
C        C      0.257200000000     0.568700000000     0.473100000000    -0.309      
C        C      0.091100000000     0.770300000000     0.174750000000     0.02       
C        C      0.107333333333     0.506900000000     0.053700000000    -0.116      
C        C      0.273100000000     0.606900000000     0.299800000000     0.516      
C        C      0.043933333333     0.769850000000     0.347100000000    -0.024      
C        C      0.115300000000     0.859200000000     0.228450000000     0.487      
C        C      0.084933333333     0.815650000000     0.007600000000     0.164      
C        C      0.201066666667     0.973400000000     0.476000000000     0.315      
C        C      0.063966666667     0.805350000000     0.344300000000     0.039      
C        C      0.311800000000     0.609400000000     0.145050000000     0.437      
C        C      0.117166666667     0.524200000000     0.088100000000    -0.018      
C        C      0.083733333333     0.515750000000     0.393100000000    -0.121      
C        C      0.070666666667     0.760350000000     0.206700000000    -0.167      
C        C      0.224266666667     0.508150000000     0.481750000000    -0.208      
C        C      0.222766666667     0.805200000000     0.428750000000    -0.043      
C        C      0.216166666667     0.524200000000     0.338100000000    -0.024      
C        C      0.069133333333     0.554900000000     0.258900000000     0.025      
C        C      0.289400000000     0.769850000000     0.097100000000    -0.017      
C        C      0.137100000000     0.856850000000     0.042350000000     0.472      
C        C      0.091666666667     0.532100000000     0.429200000000    -0.025      
C        C      0.076133333333     0.568700000000     0.223100000000    -0.169      
C        C      0.089000000000     0.519400000000     0.264500000000    -0.014      
C        C      0.249600000000     0.515750000000     0.143100000000    -0.123      
C        C      0.109066666667     0.508150000000     0.231750000000    -0.122      
C        C      0.021533333333     0.609400000000     0.395050000000     0.428      
C        C      0.048233333333     0.575950000000     0.401200000000    -0.146      
C        C      0.077766666667     0.763950000000     0.045400000000    -0.202      
C        C      0.032866666667     0.719600000000     0.399000000000     0.457      
C        C      0.244333333333     0.519400000000     0.014500000000     0.07       
C        C      0.269366666667     0.805350000000     0.094300000000     0.046      
C        C      0.262666666667     0.760350000000     0.456700000000    -0.164      
C        C      0.049566666667     0.755800000000     0.383900000000    -0.133      
C        C      0.069333333333     0.566600000000     0.433450000000     0.009      
C        C      0.047166666667     0.726050000000     0.214800000000     0.474      
C        C      0.061833333333     0.605400000000     0.207150000000     0.523      
C        C      0.255566666667     0.763950000000     0.295400000000    -0.165      
C        C      0.248400000000     0.815650000000     0.257600000000     0.017      
C        C      0.286166666667     0.726050000000     0.464800000000     0.471      
S        S      0.106266666667     0.540655000000     0.194835000000     0.082      
S        S      0.227066666667     0.540655000000     0.444835000000     0.101      
S        S      0.077700000000     0.534815000000     0.025060000000     0.147      
S        S      0.075333333333     0.785270000000     0.414025000000     0.043      
S        S      0.258000000000     0.785270000000     0.164025000000     0.069      
S        S      0.222233333333     0.789345000000     0.322100000000     0.076      
S        S      0.054366666667     0.542940000000     0.364125000000     0.064      
S        S      0.278966666667     0.542940000000     0.114125000000     0.077      
S        S      0.072700000000     0.793855000000     0.242760000000     0.072      
S        S      0.255633333333     0.534815000000     0.275060000000     0.081      
S        S      0.260633333333     0.793855000000     0.492760000000    -0.022      
S        S      0.111100000000     0.789345000000     0.072100000000     0.111      
O        O      0.047366666667     0.699850000000     0.188500000000    -0.643      
O        O      0.139066666667     0.880600000000     0.015100000000    -0.57       
O        O      0.068600000000     0.632350000000     0.073800000000    -0.602      
O        O      0.117000000000     0.859600000000     0.417200000000    -0.54       
O        O      0.113300000000     0.961200000000     0.004850000000    -0.468      
O        O      0.107533333333     0.867450000000     0.262850000000    -0.547      
O        O      0.295033333333     0.609950000000     0.270100000000    -0.553      
O        O      0.038566666667     0.712650000000     0.434850000000    -0.508      
O        O      0.264133333333     0.613300000000     0.422600000000    -0.608      
O        O      0.264500000000     0.716850000000     0.343850000000    -0.576      
O        O      0.198600000000     0.879150000000     0.453650000000    -0.513      
O        O      0.182900000000     0.968850000000     0.443000000000    -0.479      
O        O      0.150433333333     0.968850000000     0.193000000000    -0.508      
O        O      0.319266666667     0.699250000000     0.124650000000    -0.544      
O        O      0.220033333333     0.961200000000     0.254850000000    -0.542      
O        O      0.172300000000     0.914900000000     0.383650000000    -0.629      
O        O      0.004833333333     0.614200000000     0.362500000000    -0.49       
O        O      0.316000000000     0.631200000000     0.173750000000    -0.606      
O        O      0.199333333333     0.949900000000     0.002100000000    -0.532      
O        O      0.134733333333     0.879150000000     0.203650000000    -0.547      
O        O      0.014066666667     0.699250000000     0.374650000000    -0.546      
O        O      0.237900000000     0.878400000000     0.108100000000    -0.606      
O        O      0.069200000000     0.613300000000     0.172600000000    -0.597      
O        O      0.139933333333     0.950400000000     0.063600000000    -0.543      
O        O      0.017333333333     0.631200000000     0.423750000000    -0.593      
O        O      0.225800000000     0.867450000000     0.012850000000    -0.426      
O        O      0.102800000000     0.955300000000     0.410250000000    -0.589      
O        O      0.225400000000     0.971250000000     0.097250000000    -0.558      
O        O      0.028566666667     0.722950000000     0.245250000000    -0.509      
O        O      0.177166666667     0.860600000000     0.324550000000    -0.491      
O        O      0.194266666667     0.880600000000     0.265100000000    -0.635      
O        O      0.216333333333     0.859600000000     0.167200000000    -0.551      
O        O      0.134000000000     0.949900000000     0.252100000000    -0.651      
O        O      0.291066666667     0.625600000000     0.481100000000    -0.594      
O        O      0.193400000000     0.950400000000     0.313600000000    -0.552      
O        O      0.328500000000     0.614200000000     0.112500000000    -0.488      
O        O      0.068833333333     0.716850000000     0.093850000000    -0.571      
O        O      0.287266666667     0.706150000000     0.284100000000    -0.612      
O        O      0.038300000000     0.609950000000     0.020100000000    -0.476      
O        O      0.095433333333     0.878400000000     0.358100000000    -0.605      
O        O      0.046066666667     0.706150000000     0.034100000000    -0.539      
O        O      0.304766666667     0.722950000000     0.495250000000    -0.529      
O        O      0.042266666667     0.625600000000     0.231100000000    -0.569      
O        O      0.285966666667     0.699850000000     0.438500000000    -0.637      
O        O      0.264733333333     0.632350000000     0.323800000000    -0.62       
O        O      0.230533333333     0.955300000000     0.160250000000    -0.6        
O        O      0.107933333333     0.971250000000     0.347250000000    -0.559      
O        O      0.294766666667     0.712650000000     0.184850000000    -0.514      
O        O      0.161033333333     0.914900000000     0.133650000000    -0.644      
O        O      0.156166666667     0.860600000000     0.074550000000    -0.49       
Nd       Nd     0.202633333333     0.914445000000     0.561870000000     2.301      
Nd       Nd     0.318363333333     0.666390000000     0.736365000000     2.163      
Nd       Nd     0.137090000000     0.915515000000     0.954460000000     2.107      
Nd       Nd     0.014970000000     0.666390000000     0.986365000000     1.966      
Nd       Nd     0.046643333333     0.662700000000     0.630750000000     2.311      
Nd       Nd     0.130700000000     0.914445000000     0.811870000000     2.289      
Nd       Nd     0.286690000000     0.662700000000     0.880750000000     2.286      
Nd       Nd     0.196243333333     0.915515000000     0.704460000000     2.323      
H        H      0.245200000000     0.505800000000     0.537900000000     0.016      
H        H      0.263733333333     0.580800000000     0.706350000000     0.009      
H        H      0.088133333333     0.505800000000     0.787900000000     0.032      
H        H      0.189933333333     0.893150000000     0.883400000000     0.207      
H        H      0.053366666667     0.566700000000     0.777950000000     0.027      
H        H      0.190066666667     0.936500000000     0.882900000000     0.201      
H        H      0.200200000000     0.513250000000     0.857650000000     0.05       
H        H      0.080266666667     0.831600000000     0.986350000000    -0.122      
H        H      0.287466666667     0.771950000000     0.744750000000     0.028      
H        H      0.092500000000     0.755800000000     0.652050000000     0.012      
H        H      0.143400000000     0.893150000000     0.633400000000     0.212      
H        H      0.029433333333     0.758350000000     0.826950000000     0.044      
H        H      0.069600000000     0.580800000000     0.956350000000    -0.018      
H        H      0.240833333333     0.755800000000     0.902050000000     0.005      
H        H      0.143266666667     0.936500000000     0.632900000000     0.207      
H        H      0.279966666667     0.566700000000     0.527950000000    -0.001      
H        H      0.133133333333     0.513250000000     0.607650000000     0.05       
H        H      0.303900000000     0.758350000000     0.576950000000     0.062      
H        H      0.224233333333     0.522200000000     0.698150000000     0.041      
H        H      0.206133333333     0.815600000000     0.909450000000     0.046      
H        H      0.103966666667     0.575900000000     0.612950000000     0.006      
H        H      0.109100000000     0.522200000000     0.948150000000     0.021      
H        H      0.253066666667     0.831600000000     0.736350000000    -0.006      
H        H      0.267833333333     0.818650000000     0.570750000000     0.029      
H        H      0.045866666667     0.771950000000     0.994750000000    -0.09       
H        H      0.229366666667     0.575900000000     0.862950000000     0.003      
H        H      0.065500000000     0.818650000000     0.820750000000     0.011      
H        H      0.127200000000     0.815600000000     0.659450000000     0.035      
C        C      0.079066666667     0.570100000000     0.558350000000    -0.174      
C        C      0.254266666667     0.570100000000     0.808350000000    -0.178      
C        C      0.062933333333     0.725400000000     0.558450000000     0.555      
C        C      0.242233333333     0.770300000000     0.924750000000     0.028      
C        C      0.270400000000     0.725400000000     0.808450000000     0.545      
C        C      0.100566666667     0.560500000000     0.591150000000     0.04       
C        C      0.271500000000     0.605400000000     0.957150000000     0.553      
C        C      0.232766666667     0.560500000000     0.841150000000     0.037      
C        C      0.300466666667     0.719600000000     0.649000000000     0.464      
C        C      0.099300000000     0.854550000000     0.884800000000     0.512      
C        C      0.230866666667     0.821750000000     0.963300000000    -0.102      
C        C      0.060233333333     0.606900000000     0.549800000000     0.51       
C        C      0.234033333333     0.854550000000     0.634800000000     0.521      
C        C      0.264200000000     0.554900000000     0.508900000000     0.173      
C        C      0.253266666667     0.817800000000     0.627250000000    -0.179      
C        C      0.211766666667     0.970100000000     0.789900000000     0.46       
C        C      0.102466666667     0.821750000000     0.713300000000    -0.149      
C        C      0.065100000000     0.781400000000     0.512200000000     0.153      
C        C      0.121566666667     0.970100000000     0.539900000000     0.456      
C        C      0.100233333333     0.977950000000     0.882100000000     0.478      
C        C      0.110566666667     0.805200000000     0.678750000000    -0.003      
C        C      0.233100000000     0.977950000000     0.632100000000     0.491      
C        C      0.241666666667     0.532100000000     0.679200000000    -0.012      
C        C      0.221333333333     0.823650000000     0.787500000000    -0.168      
C        C      0.196233333333     0.856850000000     0.792350000000     0.458      
C        C      0.264000000000     0.566600000000     0.683450000000     0.014      
C        C      0.285100000000     0.575950000000     0.651200000000    -0.142      
C        C      0.080066666667     0.817800000000     0.877250000000    -0.177      
C        C      0.283766666667     0.755800000000     0.633900000000    -0.133      
C        C      0.112000000000     0.823650000000     0.537500000000    -0.198      
C        C      0.268233333333     0.781400000000     0.762200000000    -0.001      
C        C      0.132266666667     0.973400000000     0.726000000000     0.437      
C        C      0.218033333333     0.859200000000     0.978450000000     0.323      
C        C      0.226000000000     0.506900000000     0.803700000000    -0.117      
C        C      0.257200000000     0.568700000000     0.973100000000    -0.309      
C        C      0.091100000000     0.770300000000     0.674750000000     0.02       
C        C      0.107333333333     0.506900000000     0.553700000000    -0.116      
C        C      0.273100000000     0.606900000000     0.799800000000     0.516      
C        C      0.043933333333     0.769850000000     0.847100000000    -0.024      
C        C      0.115300000000     0.859200000000     0.728450000000     0.487      
C        C      0.084933333333     0.815650000000     0.507600000000     0.164      
C        C      0.201066666667     0.973400000000     0.976000000000     0.315      
C        C      0.063966666667     0.805350000000     0.844300000000     0.039      
C        C      0.311800000000     0.609400000000     0.645050000000     0.437      
C        C      0.117166666667     0.524200000000     0.588100000000    -0.018      
C        C      0.083733333333     0.515750000000     0.893100000000    -0.121      
C        C      0.070666666667     0.760350000000     0.706700000000    -0.167      
C        C      0.224266666667     0.508150000000     0.981750000000    -0.208      
C        C      0.222766666667     0.805200000000     0.928750000000    -0.043      
C        C      0.216166666667     0.524200000000     0.838100000000    -0.024      
C        C      0.069133333333     0.554900000000     0.758900000000     0.025      
C        C      0.289400000000     0.769850000000     0.597100000000    -0.017      
C        C      0.137100000000     0.856850000000     0.542350000000     0.472      
C        C      0.091666666667     0.532100000000     0.929200000000    -0.025      
C        C      0.076133333333     0.568700000000     0.723100000000    -0.169      
C        C      0.089000000000     0.519400000000     0.764500000000    -0.014      
C        C      0.249600000000     0.515750000000     0.643100000000    -0.123      
C        C      0.109066666667     0.508150000000     0.731750000000    -0.122      
C        C      0.021533333333     0.609400000000     0.895050000000     0.428      
C        C      0.048233333333     0.575950000000     0.901200000000    -0.146      
C        C      0.077766666667     0.763950000000     0.545400000000    -0.202      
C        C      0.032866666667     0.719600000000     0.899000000000     0.457      
C        C      0.244333333333     0.519400000000     0.514500000000     0.07       
C        C      0.269366666667     0.805350000000     0.594300000000     0.046      
C        C      0.262666666667     0.760350000000     0.956700000000    -0.164      
C        C      0.049566666667     0.755800000000     0.883900000000    -0.133      
C        C      0.069333333333     0.566600000000     0.933450000000     0.009      
C        C      0.047166666667     0.726050000000     0.714800000000     0.474      
C        C      0.061833333333     0.605400000000     0.707150000000     0.523      
C        C      0.255566666667     0.763950000000     0.795400000000    -0.165      
C        C      0.248400000000     0.815650000000     0.757600000000     0.017      
C        C      0.286166666667     0.726050000000     0.964800000000     0.471      
S        S      0.106266666667     0.540655000000     0.694835000000     0.082      
S        S      0.227066666667     0.540655000000     0.944835000000     0.101      
S        S      0.077700000000     0.534815000000     0.525060000000     0.147      
S        S      0.075333333333     0.785270000000     0.914025000000     0.043      
S        S      0.258000000000     0.785270000000     0.664025000000     0.069      
S        S      0.222233333333     0.789345000000     0.822100000000     0.076      
S        S      0.054366666667     0.542940000000     0.864125000000     0.064      
S        S      0.278966666667     0.542940000000     0.614125000000     0.077      
S        S      0.072700000000     0.793855000000     0.742760000000     0.072      
S        S      0.255633333333     0.534815000000     0.775060000000     0.081      
S        S      0.260633333333     0.793855000000     0.992760000000    -0.022      
S        S      0.111100000000     0.789345000000     0.572100000000     0.111      
O        O      0.047366666667     0.699850000000     0.688500000000    -0.643      
O        O      0.139066666667     0.880600000000     0.515100000000    -0.57       
O        O      0.068600000000     0.632350000000     0.573800000000    -0.602      
O        O      0.117000000000     0.859600000000     0.917200000000    -0.54       
O        O      0.113300000000     0.961200000000     0.504850000000    -0.468      
O        O      0.107533333333     0.867450000000     0.762850000000    -0.547      
O        O      0.295033333333     0.609950000000     0.770100000000    -0.553      
O        O      0.038566666667     0.712650000000     0.934850000000    -0.508      
O        O      0.264133333333     0.613300000000     0.922600000000    -0.608      
O        O      0.264500000000     0.716850000000     0.843850000000    -0.576      
O        O      0.198600000000     0.879150000000     0.953650000000    -0.513      
O        O      0.182900000000     0.968850000000     0.943000000000    -0.479      
O        O      0.150433333333     0.968850000000     0.693000000000    -0.508      
O        O      0.319266666667     0.699250000000     0.624650000000    -0.544      
O        O      0.220033333333     0.961200000000     0.754850000000    -0.542      
O        O      0.172300000000     0.914900000000     0.883650000000    -0.629      
O        O      0.004833333333     0.614200000000     0.862500000000    -0.49       
O        O      0.316000000000     0.631200000000     0.673750000000    -0.606      
O        O      0.199333333333     0.949900000000     0.502100000000    -0.532      
O        O      0.134733333333     0.879150000000     0.703650000000    -0.547      
O        O      0.014066666667     0.699250000000     0.874650000000    -0.546      
O        O      0.237900000000     0.878400000000     0.608100000000    -0.606      
O        O      0.069200000000     0.613300000000     0.672600000000    -0.597      
O        O      0.139933333333     0.950400000000     0.563600000000    -0.543      
O        O      0.017333333333     0.631200000000     0.923750000000    -0.593      
O        O      0.225800000000     0.867450000000     0.512850000000    -0.426      
O        O      0.102800000000     0.955300000000     0.910250000000    -0.589      
O        O      0.225400000000     0.971250000000     0.597250000000    -0.558      
O        O      0.028566666667     0.722950000000     0.745250000000    -0.509      
O        O      0.177166666667     0.860600000000     0.824550000000    -0.491      
O        O      0.194266666667     0.880600000000     0.765100000000    -0.635      
O        O      0.216333333333     0.859600000000     0.667200000000    -0.551      
O        O      0.134000000000     0.949900000000     0.752100000000    -0.651      
O        O      0.291066666667     0.625600000000     0.981100000000    -0.594      
O        O      0.193400000000     0.950400000000     0.813600000000    -0.552      
O        O      0.328500000000     0.614200000000     0.612500000000    -0.488      
O        O      0.068833333333     0.716850000000     0.593850000000    -0.571      
O        O      0.287266666667     0.706150000000     0.784100000000    -0.612      
O        O      0.038300000000     0.609950000000     0.520100000000    -0.476      
O        O      0.095433333333     0.878400000000     0.858100000000    -0.605      
O        O      0.046066666667     0.706150000000     0.534100000000    -0.539      
O        O      0.304766666667     0.722950000000     0.995250000000    -0.529      
O        O      0.042266666667     0.625600000000     0.731100000000    -0.569      
O        O      0.285966666667     0.699850000000     0.938500000000    -0.637      
O        O      0.264733333333     0.632350000000     0.823800000000    -0.62       
O        O      0.230533333333     0.955300000000     0.660250000000    -0.6        
O        O      0.107933333333     0.971250000000     0.847250000000    -0.559      
O        O      0.294766666667     0.712650000000     0.684850000000    -0.514      
O        O      0.161033333333     0.914900000000     0.633650000000    -0.644      
O        O      0.156166666667     0.860600000000     0.574550000000    -0.49       
Nd       Nd     0.535966666667     0.414445000000     0.061870000000     2.301      
Nd       Nd     0.651696666667     0.166390000000     0.236365000000     2.163      
Nd       Nd     0.470423333333     0.415515000000     0.454460000000     2.107      
Nd       Nd     0.348303333333     0.166390000000     0.486365000000     1.966      
Nd       Nd     0.379976666667     0.162700000000     0.130750000000     2.311      
Nd       Nd     0.464033333333     0.414445000000     0.311870000000     2.289      
Nd       Nd     0.620023333333     0.162700000000     0.380750000000     2.286      
Nd       Nd     0.529576666667     0.415515000000     0.204460000000     2.323      
H        H      0.578533333333     0.005800000000     0.037900000000     0.016      
H        H      0.597066666667     0.080800000000     0.206350000000     0.009      
H        H      0.421466666667     0.005800000000     0.287900000000     0.032      
H        H      0.523266666667     0.393150000000     0.383400000000     0.207      
H        H      0.386700000000     0.066700000000     0.277950000000     0.027      
H        H      0.523400000000     0.436500000000     0.382900000000     0.201      
H        H      0.533533333333     0.013250000000     0.357650000000     0.05       
H        H      0.413600000000     0.331600000000     0.486350000000    -0.122      
H        H      0.620800000000     0.271950000000     0.244750000000     0.028      
H        H      0.425833333333     0.255800000000     0.152050000000     0.012      
H        H      0.476733333333     0.393150000000     0.133400000000     0.212      
H        H      0.362766666667     0.258350000000     0.326950000000     0.044      
H        H      0.402933333333     0.080800000000     0.456350000000    -0.018      
H        H      0.574166666667     0.255800000000     0.402050000000     0.005      
H        H      0.476600000000     0.436500000000     0.132900000000     0.207      
H        H      0.613300000000     0.066700000000     0.027950000000    -0.001      
H        H      0.466466666667     0.013250000000     0.107650000000     0.05       
H        H      0.637233333333     0.258350000000     0.076950000000     0.062      
H        H      0.557566666667     0.022200000000     0.198150000000     0.041      
H        H      0.539466666667     0.315600000000     0.409450000000     0.046      
H        H      0.437300000000     0.075900000000     0.112950000000     0.006      
H        H      0.442433333333     0.022200000000     0.448150000000     0.021      
H        H      0.586400000000     0.331600000000     0.236350000000    -0.006      
H        H      0.601166666667     0.318650000000     0.070750000000     0.029      
H        H      0.379200000000     0.271950000000     0.494750000000    -0.09       
H        H      0.562700000000     0.075900000000     0.362950000000     0.003      
H        H      0.398833333333     0.318650000000     0.320750000000     0.011      
H        H      0.460533333333     0.315600000000     0.159450000000     0.035      
C        C      0.412400000000     0.070100000000     0.058350000000    -0.174      
C        C      0.587600000000     0.070100000000     0.308350000000    -0.178      
C        C      0.396266666667     0.225400000000     0.058450000000     0.555      
C        C      0.575566666667     0.270300000000     0.424750000000     0.028      
C        C      0.603733333333     0.225400000000     0.308450000000     0.545      
C        C      0.433900000000     0.060500000000     0.091150000000     0.04       
C        C      0.604833333333     0.105400000000     0.457150000000     0.553      
C        C      0.566100000000     0.060500000000     0.341150000000     0.037      
C        C      0.633800000000     0.219600000000     0.149000000000     0.464      
C        C      0.432633333333     0.354550000000     0.384800000000     0.512      
C        C      0.564200000000     0.321750000000     0.463300000000    -0.102      
C        C      0.393566666667     0.106900000000     0.049800000000     0.51       
C        C      0.567366666667     0.354550000000     0.134800000000     0.521      
C        C      0.597533333333     0.054900000000     0.008900000000     0.173      
C        C      0.586600000000     0.317800000000     0.127250000000    -0.179      
C        C      0.545100000000     0.470100000000     0.289900000000     0.46       
C        C      0.435800000000     0.321750000000     0.213300000000    -0.149      
C        C      0.398433333333     0.281400000000     0.012200000000     0.153      
C        C      0.454900000000     0.470100000000     0.039900000000     0.456      
C        C      0.433566666667     0.477950000000     0.382100000000     0.478      
C        C      0.443900000000     0.305200000000     0.178750000000    -0.003      
C        C      0.566433333333     0.477950000000     0.132100000000     0.491      
C        C      0.575000000000     0.032100000000     0.179200000000    -0.012      
C        C      0.554666666667     0.323650000000     0.287500000000    -0.168      
C        C      0.529566666667     0.356850000000     0.292350000000     0.458      
C        C      0.597333333333     0.066600000000     0.183450000000     0.014      
C        C      0.618433333333     0.075950000000     0.151200000000    -0.142      
C        C      0.413400000000     0.317800000000     0.377250000000    -0.177      
C        C      0.617100000000     0.255800000000     0.133900000000    -0.133      
C        C      0.445333333333     0.323650000000     0.037500000000    -0.198      
C        C      0.601566666667     0.281400000000     0.262200000000    -0.001      
C        C      0.465600000000     0.473400000000     0.226000000000     0.437      
C        C      0.551366666667     0.359200000000     0.478450000000     0.323      
C        C      0.559333333333     0.006900000000     0.303700000000    -0.117      
C        C      0.590533333333     0.068700000000     0.473100000000    -0.309      
C        C      0.424433333333     0.270300000000     0.174750000000     0.02       
C        C      0.440666666667     0.006900000000     0.053700000000    -0.116      
C        C      0.606433333333     0.106900000000     0.299800000000     0.516      
C        C      0.377266666667     0.269850000000     0.347100000000    -0.024      
C        C      0.448633333333     0.359200000000     0.228450000000     0.487      
C        C      0.418266666667     0.315650000000     0.007600000000     0.164      
C        C      0.534400000000     0.473400000000     0.476000000000     0.315      
C        C      0.397300000000     0.305350000000     0.344300000000     0.039      
C        C      0.645133333333     0.109400000000     0.145050000000     0.437      
C        C      0.450500000000     0.024200000000     0.088100000000    -0.018      
C        C      0.417066666667     0.015750000000     0.393100000000    -0.121      
C        C      0.404000000000     0.260350000000     0.206700000000    -0.167      
C        C      0.557600000000     0.008150000000     0.481750000000    -0.208      
C        C      0.556100000000     0.305200000000     0.428750000000    -0.043      
C        C      0.549500000000     0.024200000000     0.338100000000    -0.024      
C        C      0.402466666667     0.054900000000     0.258900000000     0.025      
C        C      0.622733333333     0.269850000000     0.097100000000    -0.017      
C        C      0.470433333333     0.356850000000     0.042350000000     0.472      
C        C      0.425000000000     0.032100000000     0.429200000000    -0.025      
C        C      0.409466666667     0.068700000000     0.223100000000    -0.169      
C        C      0.422333333333     0.019400000000     0.264500000000    -0.014      
C        C      0.582933333333     0.015750000000     0.143100000000    -0.123      
C        C      0.442400000000     0.008150000000     0.231750000000    -0.122      
C        C      0.354866666667     0.109400000000     0.395050000000     0.428      
C        C      0.381566666667     0.075950000000     0.401200000000    -0.146      
C        C      0.411100000000     0.263950000000     0.045400000000    -0.202      
C        C      0.366200000000     0.219600000000     0.399000000000     0.457      
C        C      0.577666666667     0.019400000000     0.014500000000     0.07       
C        C      0.602700000000     0.305350000000     0.094300000000     0.046      
C        C      0.596000000000     0.260350000000     0.456700000000    -0.164      
C        C      0.382900000000     0.255800000000     0.383900000000    -0.133      
C        C      0.402666666667     0.066600000000     0.433450000000     0.009      
C        C      0.380500000000     0.226050000000     0.214800000000     0.474      
C        C      0.395166666667     0.105400000000     0.207150000000     0.523      
C        C      0.588900000000     0.263950000000     0.295400000000    -0.165      
C        C      0.581733333333     0.315650000000     0.257600000000     0.017      
C        C      0.619500000000     0.226050000000     0.464800000000     0.471      
S        S      0.439600000000     0.040655000000     0.194835000000     0.082      
S        S      0.560400000000     0.040655000000     0.444835000000     0.101      
S        S      0.411033333333     0.034815000000     0.025060000000     0.147      
S        S      0.408666666667     0.285270000000     0.414025000000     0.043      
S        S      0.591333333333     0.285270000000     0.164025000000     0.069      
S        S      0.555566666667     0.289345000000     0.322100000000     0.076      
S        S      0.387700000000     0.042940000000     0.364125000000     0.064      
S        S      0.612300000000     0.042940000000     0.114125000000     0.077      
S        S      0.406033333333     0.293855000000     0.242760000000     0.072      
S        S      0.588966666667     0.034815000000     0.275060000000     0.081      
S        S      0.593966666667     0.293855000000     0.492760000000    -0.022      
S        S      0.444433333333     0.289345000000     0.072100000000     0.111      
O        O      0.380700000000     0.199850000000     0.188500000000    -0.643      
O        O      0.472400000000     0.380600000000     0.015100000000    -0.57       
O        O      0.401933333333     0.132350000000     0.073800000000    -0.602      
O        O      0.450333333333     0.359600000000     0.417200000000    -0.54       
O        O      0.446633333333     0.461200000000     0.004850000000    -0.468      
O        O      0.440866666667     0.367450000000     0.262850000000    -0.547      
O        O      0.628366666667     0.109950000000     0.270100000000    -0.553      
O        O      0.371900000000     0.212650000000     0.434850000000    -0.508      
O        O      0.597466666667     0.113300000000     0.422600000000    -0.608      
O        O      0.597833333333     0.216850000000     0.343850000000    -0.576      
O        O      0.531933333333     0.379150000000     0.453650000000    -0.513      
O        O      0.516233333333     0.468850000000     0.443000000000    -0.479      
O        O      0.483766666667     0.468850000000     0.193000000000    -0.508      
O        O      0.652600000000     0.199250000000     0.124650000000    -0.544      
O        O      0.553366666667     0.461200000000     0.254850000000    -0.542      
O        O      0.505633333333     0.414900000000     0.383650000000    -0.629      
O        O      0.338166666667     0.114200000000     0.362500000000    -0.49       
O        O      0.649333333333     0.131200000000     0.173750000000    -0.606      
O        O      0.532666666667     0.449900000000     0.002100000000    -0.532      
O        O      0.468066666667     0.379150000000     0.203650000000    -0.547      
O        O      0.347400000000     0.199250000000     0.374650000000    -0.546      
O        O      0.571233333333     0.378400000000     0.108100000000    -0.606      
O        O      0.402533333333     0.113300000000     0.172600000000    -0.597      
O        O      0.473266666667     0.450400000000     0.063600000000    -0.543      
O        O      0.350666666667     0.131200000000     0.423750000000    -0.593      
O        O      0.559133333333     0.367450000000     0.012850000000    -0.426      
O        O      0.436133333333     0.455300000000     0.410250000000    -0.589      
O        O      0.558733333333     0.471250000000     0.097250000000    -0.558      
O        O      0.361900000000     0.222950000000     0.245250000000    -0.509      
O        O      0.510500000000     0.360600000000     0.324550000000    -0.491      
O        O      0.527600000000     0.380600000000     0.265100000000    -0.635      
O        O      0.549666666667     0.359600000000     0.167200000000    -0.551      
O        O      0.467333333333     0.449900000000     0.252100000000    -0.651      
O        O      0.624400000000     0.125600000000     0.481100000000    -0.594      
O        O      0.526733333333     0.450400000000     0.313600000000    -0.552      
O        O      0.661833333333     0.114200000000     0.112500000000    -0.488      
O        O      0.402166666667     0.216850000000     0.093850000000    -0.571      
O        O      0.620600000000     0.206150000000     0.284100000000    -0.612      
O        O      0.371633333333     0.109950000000     0.020100000000    -0.476      
O        O      0.428766666667     0.378400000000     0.358100000000    -0.605      
O        O      0.379400000000     0.206150000000     0.034100000000    -0.539      
O        O      0.638100000000     0.222950000000     0.495250000000    -0.529      
O        O      0.375600000000     0.125600000000     0.231100000000    -0.569      
O        O      0.619300000000     0.199850000000     0.438500000000    -0.637      
O        O      0.598066666667     0.132350000000     0.323800000000    -0.62       
O        O      0.563866666667     0.455300000000     0.160250000000    -0.6        
O        O      0.441266666667     0.471250000000     0.347250000000    -0.559      
O        O      0.628100000000     0.212650000000     0.184850000000    -0.514      
O        O      0.494366666667     0.414900000000     0.133650000000    -0.644      
O        O      0.489500000000     0.360600000000     0.074550000000    -0.49       
Nd       Nd     0.535966666667     0.414445000000     0.561870000000     2.301      
Nd       Nd     0.651696666667     0.166390000000     0.736365000000     2.163      
Nd       Nd     0.470423333333     0.415515000000     0.954460000000     2.107      
Nd       Nd     0.348303333333     0.166390000000     0.986365000000     1.966      
Nd       Nd     0.379976666667     0.162700000000     0.630750000000     2.311      
Nd       Nd     0.464033333333     0.414445000000     0.811870000000     2.289      
Nd       Nd     0.620023333333     0.162700000000     0.880750000000     2.286      
Nd       Nd     0.529576666667     0.415515000000     0.704460000000     2.323      
H        H      0.578533333333     0.005800000000     0.537900000000     0.016      
H        H      0.597066666667     0.080800000000     0.706350000000     0.009      
H        H      0.421466666667     0.005800000000     0.787900000000     0.032      
H        H      0.523266666667     0.393150000000     0.883400000000     0.207      
H        H      0.386700000000     0.066700000000     0.777950000000     0.027      
H        H      0.523400000000     0.436500000000     0.882900000000     0.201      
H        H      0.533533333333     0.013250000000     0.857650000000     0.05       
H        H      0.413600000000     0.331600000000     0.986350000000    -0.122      
H        H      0.620800000000     0.271950000000     0.744750000000     0.028      
H        H      0.425833333333     0.255800000000     0.652050000000     0.012      
H        H      0.476733333333     0.393150000000     0.633400000000     0.212      
H        H      0.362766666667     0.258350000000     0.826950000000     0.044      
H        H      0.402933333333     0.080800000000     0.956350000000    -0.018      
H        H      0.574166666667     0.255800000000     0.902050000000     0.005      
H        H      0.476600000000     0.436500000000     0.632900000000     0.207      
H        H      0.613300000000     0.066700000000     0.527950000000    -0.001      
H        H      0.466466666667     0.013250000000     0.607650000000     0.05       
H        H      0.637233333333     0.258350000000     0.576950000000     0.062      
H        H      0.557566666667     0.022200000000     0.698150000000     0.041      
H        H      0.539466666667     0.315600000000     0.909450000000     0.046      
H        H      0.437300000000     0.075900000000     0.612950000000     0.006      
H        H      0.442433333333     0.022200000000     0.948150000000     0.021      
H        H      0.586400000000     0.331600000000     0.736350000000    -0.006      
H        H      0.601166666667     0.318650000000     0.570750000000     0.029      
H        H      0.379200000000     0.271950000000     0.994750000000    -0.09       
H        H      0.562700000000     0.075900000000     0.862950000000     0.003      
H        H      0.398833333333     0.318650000000     0.820750000000     0.011      
H        H      0.460533333333     0.315600000000     0.659450000000     0.035      
C        C      0.412400000000     0.070100000000     0.558350000000    -0.174      
C        C      0.587600000000     0.070100000000     0.808350000000    -0.178      
C        C      0.396266666667     0.225400000000     0.558450000000     0.555      
C        C      0.575566666667     0.270300000000     0.924750000000     0.028      
C        C      0.603733333333     0.225400000000     0.808450000000     0.545      
C        C      0.433900000000     0.060500000000     0.591150000000     0.04       
C        C      0.604833333333     0.105400000000     0.957150000000     0.553      
C        C      0.566100000000     0.060500000000     0.841150000000     0.037      
C        C      0.633800000000     0.219600000000     0.649000000000     0.464      
C        C      0.432633333333     0.354550000000     0.884800000000     0.512      
C        C      0.564200000000     0.321750000000     0.963300000000    -0.102      
C        C      0.393566666667     0.106900000000     0.549800000000     0.51       
C        C      0.567366666667     0.354550000000     0.634800000000     0.521      
C        C      0.597533333333     0.054900000000     0.508900000000     0.173      
C        C      0.586600000000     0.317800000000     0.627250000000    -0.179      
C        C      0.545100000000     0.470100000000     0.789900000000     0.46       
C        C      0.435800000000     0.321750000000     0.713300000000    -0.149      
C        C      0.398433333333     0.281400000000     0.512200000000     0.153      
C        C      0.454900000000     0.470100000000     0.539900000000     0.456      
C        C      0.433566666667     0.477950000000     0.882100000000     0.478      
C        C      0.443900000000     0.305200000000     0.678750000000    -0.003      
C        C      0.566433333333     0.477950000000     0.632100000000     0.491      
C        C      0.575000000000     0.032100000000     0.679200000000    -0.012      
C        C      0.554666666667     0.323650000000     0.787500000000    -0.168      
C        C      0.529566666667     0.356850000000     0.792350000000     0.458      
C        C      0.597333333333     0.066600000000     0.683450000000     0.014      
C        C      0.618433333333     0.075950000000     0.651200000000    -0.142      
C        C      0.413400000000     0.317800000000     0.877250000000    -0.177      
C        C      0.617100000000     0.255800000000     0.633900000000    -0.133      
C        C      0.445333333333     0.323650000000     0.537500000000    -0.198      
C        C      0.601566666667     0.281400000000     0.762200000000    -0.001      
C        C      0.465600000000     0.473400000000     0.726000000000     0.437      
C        C      0.551366666667     0.359200000000     0.978450000000     0.323      
C        C      0.559333333333     0.006900000000     0.803700000000    -0.117      
C        C      0.590533333333     0.068700000000     0.973100000000    -0.309      
C        C      0.424433333333     0.270300000000     0.674750000000     0.02       
C        C      0.440666666667     0.006900000000     0.553700000000    -0.116      
C        C      0.606433333333     0.106900000000     0.799800000000     0.516      
C        C      0.377266666667     0.269850000000     0.847100000000    -0.024      
C        C      0.448633333333     0.359200000000     0.728450000000     0.487      
C        C      0.418266666667     0.315650000000     0.507600000000     0.164      
C        C      0.534400000000     0.473400000000     0.976000000000     0.315      
C        C      0.397300000000     0.305350000000     0.844300000000     0.039      
C        C      0.645133333333     0.109400000000     0.645050000000     0.437      
C        C      0.450500000000     0.024200000000     0.588100000000    -0.018      
C        C      0.417066666667     0.015750000000     0.893100000000    -0.121      
C        C      0.404000000000     0.260350000000     0.706700000000    -0.167      
C        C      0.557600000000     0.008150000000     0.981750000000    -0.208      
C        C      0.556100000000     0.305200000000     0.928750000000    -0.043      
C        C      0.549500000000     0.024200000000     0.838100000000    -0.024      
C        C      0.402466666667     0.054900000000     0.758900000000     0.025      
C        C      0.622733333333     0.269850000000     0.597100000000    -0.017      
C        C      0.470433333333     0.356850000000     0.542350000000     0.472      
C        C      0.425000000000     0.032100000000     0.929200000000    -0.025      
C        C      0.409466666667     0.068700000000     0.723100000000    -0.169      
C        C      0.422333333333     0.019400000000     0.764500000000    -0.014      
C        C      0.582933333333     0.015750000000     0.643100000000    -0.123      
C        C      0.442400000000     0.008150000000     0.731750000000    -0.122      
C        C      0.354866666667     0.109400000000     0.895050000000     0.428      
C        C      0.381566666667     0.075950000000     0.901200000000    -0.146      
C        C      0.411100000000     0.263950000000     0.545400000000    -0.202      
C        C      0.366200000000     0.219600000000     0.899000000000     0.457      
C        C      0.577666666667     0.019400000000     0.514500000000     0.07       
C        C      0.602700000000     0.305350000000     0.594300000000     0.046      
C        C      0.596000000000     0.260350000000     0.956700000000    -0.164      
C        C      0.382900000000     0.255800000000     0.883900000000    -0.133      
C        C      0.402666666667     0.066600000000     0.933450000000     0.009      
C        C      0.380500000000     0.226050000000     0.714800000000     0.474      
C        C      0.395166666667     0.105400000000     0.707150000000     0.523      
C        C      0.588900000000     0.263950000000     0.795400000000    -0.165      
C        C      0.581733333333     0.315650000000     0.757600000000     0.017      
C        C      0.619500000000     0.226050000000     0.964800000000     0.471      
S        S      0.439600000000     0.040655000000     0.694835000000     0.082      
S        S      0.560400000000     0.040655000000     0.944835000000     0.101      
S        S      0.411033333333     0.034815000000     0.525060000000     0.147      
S        S      0.408666666667     0.285270000000     0.914025000000     0.043      
S        S      0.591333333333     0.285270000000     0.664025000000     0.069      
S        S      0.555566666667     0.289345000000     0.822100000000     0.076      
S        S      0.387700000000     0.042940000000     0.864125000000     0.064      
S        S      0.612300000000     0.042940000000     0.614125000000     0.077      
S        S      0.406033333333     0.293855000000     0.742760000000     0.072      
S        S      0.588966666667     0.034815000000     0.775060000000     0.081      
S        S      0.593966666667     0.293855000000     0.992760000000    -0.022      
S        S      0.444433333333     0.289345000000     0.572100000000     0.111      
O        O      0.380700000000     0.199850000000     0.688500000000    -0.643      
O        O      0.472400000000     0.380600000000     0.515100000000    -0.57       
O        O      0.401933333333     0.132350000000     0.573800000000    -0.602      
O        O      0.450333333333     0.359600000000     0.917200000000    -0.54       
O        O      0.446633333333     0.461200000000     0.504850000000    -0.468      
O        O      0.440866666667     0.367450000000     0.762850000000    -0.547      
O        O      0.628366666667     0.109950000000     0.770100000000    -0.553      
O        O      0.371900000000     0.212650000000     0.934850000000    -0.508      
O        O      0.597466666667     0.113300000000     0.922600000000    -0.608      
O        O      0.597833333333     0.216850000000     0.843850000000    -0.576      
O        O      0.531933333333     0.379150000000     0.953650000000    -0.513      
O        O      0.516233333333     0.468850000000     0.943000000000    -0.479      
O        O      0.483766666667     0.468850000000     0.693000000000    -0.508      
O        O      0.652600000000     0.199250000000     0.624650000000    -0.544      
O        O      0.553366666667     0.461200000000     0.754850000000    -0.542      
O        O      0.505633333333     0.414900000000     0.883650000000    -0.629      
O        O      0.338166666667     0.114200000000     0.862500000000    -0.49       
O        O      0.649333333333     0.131200000000     0.673750000000    -0.606      
O        O      0.532666666667     0.449900000000     0.502100000000    -0.532      
O        O      0.468066666667     0.379150000000     0.703650000000    -0.547      
O        O      0.347400000000     0.199250000000     0.874650000000    -0.546      
O        O      0.571233333333     0.378400000000     0.608100000000    -0.606      
O        O      0.402533333333     0.113300000000     0.672600000000    -0.597      
O        O      0.473266666667     0.450400000000     0.563600000000    -0.543      
O        O      0.350666666667     0.131200000000     0.923750000000    -0.593      
O        O      0.559133333333     0.367450000000     0.512850000000    -0.426      
O        O      0.436133333333     0.455300000000     0.910250000000    -0.589      
O        O      0.558733333333     0.471250000000     0.597250000000    -0.558      
O        O      0.361900000000     0.222950000000     0.745250000000    -0.509      
O        O      0.510500000000     0.360600000000     0.824550000000    -0.491      
O        O      0.527600000000     0.380600000000     0.765100000000    -0.635      
O        O      0.549666666667     0.359600000000     0.667200000000    -0.551      
O        O      0.467333333333     0.449900000000     0.752100000000    -0.651      
O        O      0.624400000000     0.125600000000     0.981100000000    -0.594      
O        O      0.526733333333     0.450400000000     0.813600000000    -0.552      
O        O      0.661833333333     0.114200000000     0.612500000000    -0.488      
O        O      0.402166666667     0.216850000000     0.593850000000    -0.571      
O        O      0.620600000000     0.206150000000     0.784100000000    -0.612      
O        O      0.371633333333     0.109950000000     0.520100000000    -0.476      
O        O      0.428766666667     0.378400000000     0.858100000000    -0.605      
O        O      0.379400000000     0.206150000000     0.534100000000    -0.539      
O        O      0.638100000000     0.222950000000     0.995250000000    -0.529      
O        O      0.375600000000     0.125600000000     0.731100000000    -0.569      
O        O      0.619300000000     0.199850000000     0.938500000000    -0.637      
O        O      0.598066666667     0.132350000000     0.823800000000    -0.62       
O        O      0.563866666667     0.455300000000     0.660250000000    -0.6        
O        O      0.441266666667     0.471250000000     0.847250000000    -0.559      
O        O      0.628100000000     0.212650000000     0.684850000000    -0.514      
O        O      0.494366666667     0.414900000000     0.633650000000    -0.644      
O        O      0.489500000000     0.360600000000     0.574550000000    -0.49       
Nd       Nd     0.535966666667     0.914445000000     0.061870000000     2.301      
Nd       Nd     0.651696666667     0.666390000000     0.236365000000     2.163      
Nd       Nd     0.470423333333     0.915515000000     0.454460000000     2.107      
Nd       Nd     0.348303333333     0.666390000000     0.486365000000     1.966      
Nd       Nd     0.379976666667     0.662700000000     0.130750000000     2.311      
Nd       Nd     0.464033333333     0.914445000000     0.311870000000     2.289      
Nd       Nd     0.620023333333     0.662700000000     0.380750000000     2.286      
Nd       Nd     0.529576666667     0.915515000000     0.204460000000     2.323      
H        H      0.578533333333     0.505800000000     0.037900000000     0.016      
H        H      0.597066666667     0.580800000000     0.206350000000     0.009      
H        H      0.421466666667     0.505800000000     0.287900000000     0.032      
H        H      0.523266666667     0.893150000000     0.383400000000     0.207      
H        H      0.386700000000     0.566700000000     0.277950000000     0.027      
H        H      0.523400000000     0.936500000000     0.382900000000     0.201      
H        H      0.533533333333     0.513250000000     0.357650000000     0.05       
H        H      0.413600000000     0.831600000000     0.486350000000    -0.122      
H        H      0.620800000000     0.771950000000     0.244750000000     0.028      
H        H      0.425833333333     0.755800000000     0.152050000000     0.012      
H        H      0.476733333333     0.893150000000     0.133400000000     0.212      
H        H      0.362766666667     0.758350000000     0.326950000000     0.044      
H        H      0.402933333333     0.580800000000     0.456350000000    -0.018      
H        H      0.574166666667     0.755800000000     0.402050000000     0.005      
H        H      0.476600000000     0.936500000000     0.132900000000     0.207      
H        H      0.613300000000     0.566700000000     0.027950000000    -0.001      
H        H      0.466466666667     0.513250000000     0.107650000000     0.05       
H        H      0.637233333333     0.758350000000     0.076950000000     0.062      
H        H      0.557566666667     0.522200000000     0.198150000000     0.041      
H        H      0.539466666667     0.815600000000     0.409450000000     0.046      
H        H      0.437300000000     0.575900000000     0.112950000000     0.006      
H        H      0.442433333333     0.522200000000     0.448150000000     0.021      
H        H      0.586400000000     0.831600000000     0.236350000000    -0.006      
H        H      0.601166666667     0.818650000000     0.070750000000     0.029      
H        H      0.379200000000     0.771950000000     0.494750000000    -0.09       
H        H      0.562700000000     0.575900000000     0.362950000000     0.003      
H        H      0.398833333333     0.818650000000     0.320750000000     0.011      
H        H      0.460533333333     0.815600000000     0.159450000000     0.035      
C        C      0.412400000000     0.570100000000     0.058350000000    -0.174      
C        C      0.587600000000     0.570100000000     0.308350000000    -0.178      
C        C      0.396266666667     0.725400000000     0.058450000000     0.555      
C        C      0.575566666667     0.770300000000     0.424750000000     0.028      
C        C      0.603733333333     0.725400000000     0.308450000000     0.545      
C        C      0.433900000000     0.560500000000     0.091150000000     0.04       
C        C      0.604833333333     0.605400000000     0.457150000000     0.553      
C        C      0.566100000000     0.560500000000     0.341150000000     0.037      
C        C      0.633800000000     0.719600000000     0.149000000000     0.464      
C        C      0.432633333333     0.854550000000     0.384800000000     0.512      
C        C      0.564200000000     0.821750000000     0.463300000000    -0.102      
C        C      0.393566666667     0.606900000000     0.049800000000     0.51       
C        C      0.567366666667     0.854550000000     0.134800000000     0.521      
C        C      0.597533333333     0.554900000000     0.008900000000     0.173      
C        C      0.586600000000     0.817800000000     0.127250000000    -0.179      
C        C      0.545100000000     0.970100000000     0.289900000000     0.46       
C        C      0.435800000000     0.821750000000     0.213300000000    -0.149      
C        C      0.398433333333     0.781400000000     0.012200000000     0.153      
C        C      0.454900000000     0.970100000000     0.039900000000     0.456      
C        C      0.433566666667     0.977950000000     0.382100000000     0.478      
C        C      0.443900000000     0.805200000000     0.178750000000    -0.003      
C        C      0.566433333333     0.977950000000     0.132100000000     0.491      
C        C      0.575000000000     0.532100000000     0.179200000000    -0.012      
C        C      0.554666666667     0.823650000000     0.287500000000    -0.168      
C        C      0.529566666667     0.856850000000     0.292350000000     0.458      
C        C      0.597333333333     0.566600000000     0.183450000000     0.014      
C        C      0.618433333333     0.575950000000     0.151200000000    -0.142      
C        C      0.413400000000     0.817800000000     0.377250000000    -0.177      
C        C      0.617100000000     0.755800000000     0.133900000000    -0.133      
C        C      0.445333333333     0.823650000000     0.037500000000    -0.198      
C        C      0.601566666667     0.781400000000     0.262200000000    -0.001      
C        C      0.465600000000     0.973400000000     0.226000000000     0.437      
C        C      0.551366666667     0.859200000000     0.478450000000     0.323      
C        C      0.559333333333     0.506900000000     0.303700000000    -0.117      
C        C      0.590533333333     0.568700000000     0.473100000000    -0.309      
C        C      0.424433333333     0.770300000000     0.174750000000     0.02       
C        C      0.440666666667     0.506900000000     0.053700000000    -0.116      
C        C      0.606433333333     0.606900000000     0.299800000000     0.516      
C        C      0.377266666667     0.769850000000     0.347100000000    -0.024      
C        C      0.448633333333     0.859200000000     0.228450000000     0.487      
C        C      0.418266666667     0.815650000000     0.007600000000     0.164      
C        C      0.534400000000     0.973400000000     0.476000000000     0.315      
C        C      0.397300000000     0.805350000000     0.344300000000     0.039      
C        C      0.645133333333     0.609400000000     0.145050000000     0.437      
C        C      0.450500000000     0.524200000000     0.088100000000    -0.018      
C        C      0.417066666667     0.515750000000     0.393100000000    -0.121      
C        C      0.404000000000     0.760350000000     0.206700000000    -0.167      
C        C      0.557600000000     0.508150000000     0.481750000000    -0.208      
C        C      0.556100000000     0.805200000000     0.428750000000    -0.043      
C        C      0.549500000000     0.524200000000     0.338100000000    -0.024      
C        C      0.402466666667     0.554900000000     0.258900000000     0.025      
C        C      0.622733333333     0.769850000000     0.097100000000    -0.017      
C        C      0.470433333333     0.856850000000     0.042350000000     0.472      
C        C      0.425000000000     0.532100000000     0.429200000000    -0.025      
C        C      0.409466666667     0.568700000000     0.223100000000    -0.169      
C        C      0.422333333333     0.519400000000     0.264500000000    -0.014      
C        C      0.582933333333     0.515750000000     0.143100000000    -0.123      
C        C      0.442400000000     0.508150000000     0.231750000000    -0.122      
C        C      0.354866666667     0.609400000000     0.395050000000     0.428      
C        C      0.381566666667     0.575950000000     0.401200000000    -0.146      
C        C      0.411100000000     0.763950000000     0.045400000000    -0.202      
C        C      0.366200000000     0.719600000000     0.399000000000     0.457      
C        C      0.577666666667     0.519400000000     0.014500000000     0.07       
C        C      0.602700000000     0.805350000000     0.094300000000     0.046      
C        C      0.596000000000     0.760350000000     0.456700000000    -0.164      
C        C      0.382900000000     0.755800000000     0.383900000000    -0.133      
C        C      0.402666666667     0.566600000000     0.433450000000     0.009      
C        C      0.380500000000     0.726050000000     0.214800000000     0.474      
C        C      0.395166666667     0.605400000000     0.207150000000     0.523      
C        C      0.588900000000     0.763950000000     0.295400000000    -0.165      
C        C      0.581733333333     0.815650000000     0.257600000000     0.017      
C        C      0.619500000000     0.726050000000     0.464800000000     0.471      
S        S      0.439600000000     0.540655000000     0.194835000000     0.082      
S        S      0.560400000000     0.540655000000     0.444835000000     0.101      
S        S      0.411033333333     0.534815000000     0.025060000000     0.147      
S        S      0.408666666667     0.785270000000     0.414025000000     0.043      
S        S      0.591333333333     0.785270000000     0.164025000000     0.069      
S        S      0.555566666667     0.789345000000     0.322100000000     0.076      
S        S      0.387700000000     0.542940000000     0.364125000000     0.064      
S        S      0.612300000000     0.542940000000     0.114125000000     0.077      
S        S      0.406033333333     0.793855000000     0.242760000000     0.072      
S        S      0.588966666667     0.534815000000     0.275060000000     0.081      
S        S      0.593966666667     0.793855000000     0.492760000000    -0.022      
S        S      0.444433333333     0.789345000000     0.072100000000     0.111      
O        O      0.380700000000     0.699850000000     0.188500000000    -0.643      
O        O      0.472400000000     0.880600000000     0.015100000000    -0.57       
O        O      0.401933333333     0.632350000000     0.073800000000    -0.602      
O        O      0.450333333333     0.859600000000     0.417200000000    -0.54       
O        O      0.446633333333     0.961200000000     0.004850000000    -0.468      
O        O      0.440866666667     0.867450000000     0.262850000000    -0.547      
O        O      0.628366666667     0.609950000000     0.270100000000    -0.553      
O        O      0.371900000000     0.712650000000     0.434850000000    -0.508      
O        O      0.597466666667     0.613300000000     0.422600000000    -0.608      
O        O      0.597833333333     0.716850000000     0.343850000000    -0.576      
O        O      0.531933333333     0.879150000000     0.453650000000    -0.513      
O        O      0.516233333333     0.968850000000     0.443000000000    -0.479      
O        O      0.483766666667     0.968850000000     0.193000000000    -0.508      
O        O      0.652600000000     0.699250000000     0.124650000000    -0.544      
O        O      0.553366666667     0.961200000000     0.254850000000    -0.542      
O        O      0.505633333333     0.914900000000     0.383650000000    -0.629      
O        O      0.338166666667     0.614200000000     0.362500000000    -0.49       
O        O      0.649333333333     0.631200000000     0.173750000000    -0.606      
O        O      0.532666666667     0.949900000000     0.002100000000    -0.532      
O        O      0.468066666667     0.879150000000     0.203650000000    -0.547      
O        O      0.347400000000     0.699250000000     0.374650000000    -0.546      
O        O      0.571233333333     0.878400000000     0.108100000000    -0.606      
O        O      0.402533333333     0.613300000000     0.172600000000    -0.597      
O        O      0.473266666667     0.950400000000     0.063600000000    -0.543      
O        O      0.350666666667     0.631200000000     0.423750000000    -0.593      
O        O      0.559133333333     0.867450000000     0.012850000000    -0.426      
O        O      0.436133333333     0.955300000000     0.410250000000    -0.589      
O        O      0.558733333333     0.971250000000     0.097250000000    -0.558      
O        O      0.361900000000     0.722950000000     0.245250000000    -0.509      
O        O      0.510500000000     0.860600000000     0.324550000000    -0.491      
O        O      0.527600000000     0.880600000000     0.265100000000    -0.635      
O        O      0.549666666667     0.859600000000     0.167200000000    -0.551      
O        O      0.467333333333     0.949900000000     0.252100000000    -0.651      
O        O      0.624400000000     0.625600000000     0.481100000000    -0.594      
O        O      0.526733333333     0.950400000000     0.313600000000    -0.552      
O        O      0.661833333333     0.614200000000     0.112500000000    -0.488      
O        O      0.402166666667     0.716850000000     0.093850000000    -0.571      
O        O      0.620600000000     0.706150000000     0.284100000000    -0.612      
O        O      0.371633333333     0.609950000000     0.020100000000    -0.476      
O        O      0.428766666667     0.878400000000     0.358100000000    -0.605      
O        O      0.379400000000     0.706150000000     0.034100000000    -0.539      
O        O      0.638100000000     0.722950000000     0.495250000000    -0.529      
O        O      0.375600000000     0.625600000000     0.231100000000    -0.569      
O        O      0.619300000000     0.699850000000     0.438500000000    -0.637      
O        O      0.598066666667     0.632350000000     0.323800000000    -0.62       
O        O      0.563866666667     0.955300000000     0.160250000000    -0.6        
O        O      0.441266666667     0.971250000000     0.347250000000    -0.559      
O        O      0.628100000000     0.712650000000     0.184850000000    -0.514      
O        O      0.494366666667     0.914900000000     0.133650000000    -0.644      
O        O      0.489500000000     0.860600000000     0.074550000000    -0.49       
Nd       Nd     0.535966666667     0.914445000000     0.561870000000     2.301      
Nd       Nd     0.651696666667     0.666390000000     0.736365000000     2.163      
Nd       Nd     0.470423333333     0.915515000000     0.954460000000     2.107      
Nd       Nd     0.348303333333     0.666390000000     0.986365000000     1.966      
Nd       Nd     0.379976666667     0.662700000000     0.630750000000     2.311      
Nd       Nd     0.464033333333     0.914445000000     0.811870000000     2.289      
Nd       Nd     0.620023333333     0.662700000000     0.880750000000     2.286      
Nd       Nd     0.529576666667     0.915515000000     0.704460000000     2.323      
H        H      0.578533333333     0.505800000000     0.537900000000     0.016      
H        H      0.597066666667     0.580800000000     0.706350000000     0.009      
H        H      0.421466666667     0.505800000000     0.787900000000     0.032      
H        H      0.523266666667     0.893150000000     0.883400000000     0.207      
H        H      0.386700000000     0.566700000000     0.777950000000     0.027      
H        H      0.523400000000     0.936500000000     0.882900000000     0.201      
H        H      0.533533333333     0.513250000000     0.857650000000     0.05       
H        H      0.413600000000     0.831600000000     0.986350000000    -0.122      
H        H      0.620800000000     0.771950000000     0.744750000000     0.028      
H        H      0.425833333333     0.755800000000     0.652050000000     0.012      
H        H      0.476733333333     0.893150000000     0.633400000000     0.212      
H        H      0.362766666667     0.758350000000     0.826950000000     0.044      
H        H      0.402933333333     0.580800000000     0.956350000000    -0.018      
H        H      0.574166666667     0.755800000000     0.902050000000     0.005      
H        H      0.476600000000     0.936500000000     0.632900000000     0.207      
H        H      0.613300000000     0.566700000000     0.527950000000    -0.001      
H        H      0.466466666667     0.513250000000     0.607650000000     0.05       
H        H      0.637233333333     0.758350000000     0.576950000000     0.062      
H        H      0.557566666667     0.522200000000     0.698150000000     0.041      
H        H      0.539466666667     0.815600000000     0.909450000000     0.046      
H        H      0.437300000000     0.575900000000     0.612950000000     0.006      
H        H      0.442433333333     0.522200000000     0.948150000000     0.021      
H        H      0.586400000000     0.831600000000     0.736350000000    -0.006      
H        H      0.601166666667     0.818650000000     0.570750000000     0.029      
H        H      0.379200000000     0.771950000000     0.994750000000    -0.09       
H        H      0.562700000000     0.575900000000     0.862950000000     0.003      
H        H      0.398833333333     0.818650000000     0.820750000000     0.011      
H        H      0.460533333333     0.815600000000     0.659450000000     0.035      
C        C      0.412400000000     0.570100000000     0.558350000000    -0.174      
C        C      0.587600000000     0.570100000000     0.808350000000    -0.178      
C        C      0.396266666667     0.725400000000     0.558450000000     0.555      
C        C      0.575566666667     0.770300000000     0.924750000000     0.028      
C        C      0.603733333333     0.725400000000     0.808450000000     0.545      
C        C      0.433900000000     0.560500000000     0.591150000000     0.04       
C        C      0.604833333333     0.605400000000     0.957150000000     0.553      
C        C      0.566100000000     0.560500000000     0.841150000000     0.037      
C        C      0.633800000000     0.719600000000     0.649000000000     0.464      
C        C      0.432633333333     0.854550000000     0.884800000000     0.512      
C        C      0.564200000000     0.821750000000     0.963300000000    -0.102      
C        C      0.393566666667     0.606900000000     0.549800000000     0.51       
C        C      0.567366666667     0.854550000000     0.634800000000     0.521      
C        C      0.597533333333     0.554900000000     0.508900000000     0.173      
C        C      0.586600000000     0.817800000000     0.627250000000    -0.179      
C        C      0.545100000000     0.970100000000     0.789900000000     0.46       
C        C      0.435800000000     0.821750000000     0.713300000000    -0.149      
C        C      0.398433333333     0.781400000000     0.512200000000     0.153      
C        C      0.454900000000     0.970100000000     0.539900000000     0.456      
C        C      0.433566666667     0.977950000000     0.882100000000     0.478      
C        C      0.443900000000     0.805200000000     0.678750000000    -0.003      
C        C      0.566433333333     0.977950000000     0.632100000000     0.491      
C        C      0.575000000000     0.532100000000     0.679200000000    -0.012      
C        C      0.554666666667     0.823650000000     0.787500000000    -0.168      
C        C      0.529566666667     0.856850000000     0.792350000000     0.458      
C        C      0.597333333333     0.566600000000     0.683450000000     0.014      
C        C      0.618433333333     0.575950000000     0.651200000000    -0.142      
C        C      0.413400000000     0.817800000000     0.877250000000    -0.177      
C        C      0.617100000000     0.755800000000     0.633900000000    -0.133      
C        C      0.445333333333     0.823650000000     0.537500000000    -0.198      
C        C      0.601566666667     0.781400000000     0.762200000000    -0.001      
C        C      0.465600000000     0.973400000000     0.726000000000     0.437      
C        C      0.551366666667     0.859200000000     0.978450000000     0.323      
C        C      0.559333333333     0.506900000000     0.803700000000    -0.117      
C        C      0.590533333333     0.568700000000     0.973100000000    -0.309      
C        C      0.424433333333     0.770300000000     0.674750000000     0.02       
C        C      0.440666666667     0.506900000000     0.553700000000    -0.116      
C        C      0.606433333333     0.606900000000     0.799800000000     0.516      
C        C      0.377266666667     0.769850000000     0.847100000000    -0.024      
C        C      0.448633333333     0.859200000000     0.728450000000     0.487      
C        C      0.418266666667     0.815650000000     0.507600000000     0.164      
C        C      0.534400000000     0.973400000000     0.976000000000     0.315      
C        C      0.397300000000     0.805350000000     0.844300000000     0.039      
C        C      0.645133333333     0.609400000000     0.645050000000     0.437      
C        C      0.450500000000     0.524200000000     0.588100000000    -0.018      
C        C      0.417066666667     0.515750000000     0.893100000000    -0.121      
C        C      0.404000000000     0.760350000000     0.706700000000    -0.167      
C        C      0.557600000000     0.508150000000     0.981750000000    -0.208      
C        C      0.556100000000     0.805200000000     0.928750000000    -0.043      
C        C      0.549500000000     0.524200000000     0.838100000000    -0.024      
C        C      0.402466666667     0.554900000000     0.758900000000     0.025      
C        C      0.622733333333     0.769850000000     0.597100000000    -0.017      
C        C      0.470433333333     0.856850000000     0.542350000000     0.472      
C        C      0.425000000000     0.532100000000     0.929200000000    -0.025      
C        C      0.409466666667     0.568700000000     0.723100000000    -0.169      
C        C      0.422333333333     0.519400000000     0.764500000000    -0.014      
C        C      0.582933333333     0.515750000000     0.643100000000    -0.123      
C        C      0.442400000000     0.508150000000     0.731750000000    -0.122      
C        C      0.354866666667     0.609400000000     0.895050000000     0.428      
C        C      0.381566666667     0.575950000000     0.901200000000    -0.146      
C        C      0.411100000000     0.763950000000     0.545400000000    -0.202      
C        C      0.366200000000     0.719600000000     0.899000000000     0.457      
C        C      0.577666666667     0.519400000000     0.514500000000     0.07       
C        C      0.602700000000     0.805350000000     0.594300000000     0.046      
C        C      0.596000000000     0.760350000000     0.956700000000    -0.164      
C        C      0.382900000000     0.755800000000     0.883900000000    -0.133      
C        C      0.402666666667     0.566600000000     0.933450000000     0.009      
C        C      0.380500000000     0.726050000000     0.714800000000     0.474      
C        C      0.395166666667     0.605400000000     0.707150000000     0.523      
C        C      0.588900000000     0.763950000000     0.795400000000    -0.165      
C        C      0.581733333333     0.815650000000     0.757600000000     0.017      
C        C      0.619500000000     0.726050000000     0.964800000000     0.471      
S        S      0.439600000000     0.540655000000     0.694835000000     0.082      
S        S      0.560400000000     0.540655000000     0.944835000000     0.101      
S        S      0.411033333333     0.534815000000     0.525060000000     0.147      
S        S      0.408666666667     0.785270000000     0.914025000000     0.043      
S        S      0.591333333333     0.785270000000     0.664025000000     0.069      
S        S      0.555566666667     0.789345000000     0.822100000000     0.076      
S        S      0.387700000000     0.542940000000     0.864125000000     0.064      
S        S      0.612300000000     0.542940000000     0.614125000000     0.077      
S        S      0.406033333333     0.793855000000     0.742760000000     0.072      
S        S      0.588966666667     0.534815000000     0.775060000000     0.081      
S        S      0.593966666667     0.793855000000     0.992760000000    -0.022      
S        S      0.444433333333     0.789345000000     0.572100000000     0.111      
O        O      0.380700000000     0.699850000000     0.688500000000    -0.643      
O        O      0.472400000000     0.880600000000     0.515100000000    -0.57       
O        O      0.401933333333     0.632350000000     0.573800000000    -0.602      
O        O      0.450333333333     0.859600000000     0.917200000000    -0.54       
O        O      0.446633333333     0.961200000000     0.504850000000    -0.468      
O        O      0.440866666667     0.867450000000     0.762850000000    -0.547      
O        O      0.628366666667     0.609950000000     0.770100000000    -0.553      
O        O      0.371900000000     0.712650000000     0.934850000000    -0.508      
O        O      0.597466666667     0.613300000000     0.922600000000    -0.608      
O        O      0.597833333333     0.716850000000     0.843850000000    -0.576      
O        O      0.531933333333     0.879150000000     0.953650000000    -0.513      
O        O      0.516233333333     0.968850000000     0.943000000000    -0.479      
O        O      0.483766666667     0.968850000000     0.693000000000    -0.508      
O        O      0.652600000000     0.699250000000     0.624650000000    -0.544      
O        O      0.553366666667     0.961200000000     0.754850000000    -0.542      
O        O      0.505633333333     0.914900000000     0.883650000000    -0.629      
O        O      0.338166666667     0.614200000000     0.862500000000    -0.49       
O        O      0.649333333333     0.631200000000     0.673750000000    -0.606      
O        O      0.532666666667     0.949900000000     0.502100000000    -0.532      
O        O      0.468066666667     0.879150000000     0.703650000000    -0.547      
O        O      0.347400000000     0.699250000000     0.874650000000    -0.546      
O        O      0.571233333333     0.878400000000     0.608100000000    -0.606      
O        O      0.402533333333     0.613300000000     0.672600000000    -0.597      
O        O      0.473266666667     0.950400000000     0.563600000000    -0.543      
O        O      0.350666666667     0.631200000000     0.923750000000    -0.593      
O        O      0.559133333333     0.867450000000     0.512850000000    -0.426      
O        O      0.436133333333     0.955300000000     0.910250000000    -0.589      
O        O      0.558733333333     0.971250000000     0.597250000000    -0.558      
O        O      0.361900000000     0.722950000000     0.745250000000    -0.509      
O        O      0.510500000000     0.860600000000     0.824550000000    -0.491      
O        O      0.527600000000     0.880600000000     0.765100000000    -0.635      
O        O      0.549666666667     0.859600000000     0.667200000000    -0.551      
O        O      0.467333333333     0.949900000000     0.752100000000    -0.651      
O        O      0.624400000000     0.625600000000     0.981100000000    -0.594      
O        O      0.526733333333     0.950400000000     0.813600000000    -0.552      
O        O      0.661833333333     0.614200000000     0.612500000000    -0.488      
O        O      0.402166666667     0.716850000000     0.593850000000    -0.571      
O        O      0.620600000000     0.706150000000     0.784100000000    -0.612      
O        O      0.371633333333     0.609950000000     0.520100000000    -0.476      
O        O      0.428766666667     0.878400000000     0.858100000000    -0.605      
O        O      0.379400000000     0.706150000000     0.534100000000    -0.539      
O        O      0.638100000000     0.722950000000     0.995250000000    -0.529      
O        O      0.375600000000     0.625600000000     0.731100000000    -0.569      
O        O      0.619300000000     0.699850000000     0.938500000000    -0.637      
O        O      0.598066666667     0.632350000000     0.823800000000    -0.62       
O        O      0.563866666667     0.955300000000     0.660250000000    -0.6        
O        O      0.441266666667     0.971250000000     0.847250000000    -0.559      
O        O      0.628100000000     0.712650000000     0.684850000000    -0.514      
O        O      0.494366666667     0.914900000000     0.633650000000    -0.644      
O        O      0.489500000000     0.860600000000     0.574550000000    -0.49       
Nd       Nd     0.869300000000     0.414445000000     0.061870000000     2.301      
Nd       Nd     0.985030000000     0.166390000000     0.236365000000     2.163      
Nd       Nd     0.803756666667     0.415515000000     0.454460000000     2.107      
Nd       Nd     0.681636666667     0.166390000000     0.486365000000     1.966      
Nd       Nd     0.713310000000     0.162700000000     0.130750000000     2.311      
Nd       Nd     0.797366666667     0.414445000000     0.311870000000     2.289      
Nd       Nd     0.953356666667     0.162700000000     0.380750000000     2.286      
Nd       Nd     0.862910000000     0.415515000000     0.204460000000     2.323      
H        H      0.911866666667     0.005800000000     0.037900000000     0.016      
H        H      0.930400000000     0.080800000000     0.206350000000     0.009      
H        H      0.754800000000     0.005800000000     0.287900000000     0.032      
H        H      0.856600000000     0.393150000000     0.383400000000     0.207      
H        H      0.720033333333     0.066700000000     0.277950000000     0.027      
H        H      0.856733333333     0.436500000000     0.382900000000     0.201      
H        H      0.866866666667     0.013250000000     0.357650000000     0.05       
H        H      0.746933333333     0.331600000000     0.486350000000    -0.122      
H        H      0.954133333333     0.271950000000     0.244750000000     0.028      
H        H      0.759166666667     0.255800000000     0.152050000000     0.012      
H        H      0.810066666667     0.393150000000     0.133400000000     0.212      
H        H      0.696100000000     0.258350000000     0.326950000000     0.044      
H        H      0.736266666667     0.080800000000     0.456350000000    -0.018      
H        H      0.907500000000     0.255800000000     0.402050000000     0.005      
H        H      0.809933333333     0.436500000000     0.132900000000     0.207      
H        H      0.946633333333     0.066700000000     0.027950000000    -0.001      
H        H      0.799800000000     0.013250000000     0.107650000000     0.05       
H        H      0.970566666667     0.258350000000     0.076950000000     0.062      
H        H      0.890900000000     0.022200000000     0.198150000000     0.041      
H        H      0.872800000000     0.315600000000     0.409450000000     0.046      
H        H      0.770633333333     0.075900000000     0.112950000000     0.006      
H        H      0.775766666667     0.022200000000     0.448150000000     0.021      
H        H      0.919733333333     0.331600000000     0.236350000000    -0.006      
H        H      0.934500000000     0.318650000000     0.070750000000     0.029      
H        H      0.712533333333     0.271950000000     0.494750000000    -0.09       
H        H      0.896033333333     0.075900000000     0.362950000000     0.003      
H        H      0.732166666667     0.318650000000     0.320750000000     0.011      
H        H      0.793866666667     0.315600000000     0.159450000000     0.035      
C        C      0.745733333333     0.070100000000     0.058350000000    -0.174      
C        C      0.920933333333     0.070100000000     0.308350000000    -0.178      
C        C      0.729600000000     0.225400000000     0.058450000000     0.555      
C        C      0.908900000000     0.270300000000     0.424750000000     0.028      
C        C      0.937066666667     0.225400000000     0.308450000000     0.545      
C        C      0.767233333333     0.060500000000     0.091150000000     0.04       
C        C      0.938166666667     0.105400000000     0.457150000000     0.553      
C        C      0.899433333333     0.060500000000     0.341150000000     0.037      
C        C      0.967133333333     0.219600000000     0.149000000000     0.464      
C        C      0.765966666667     0.354550000000     0.384800000000     0.512      
C        C      0.897533333333     0.321750000000     0.463300000000    -0.102      
C        C      0.726900000000     0.106900000000     0.049800000000     0.51       
C        C      0.900700000000     0.354550000000     0.134800000000     0.521      
C        C      0.930866666667     0.054900000000     0.008900000000     0.173      
C        C      0.919933333333     0.317800000000     0.127250000000    -0.179      
C        C      0.878433333333     0.470100000000     0.289900000000     0.46       
C        C      0.769133333333     0.321750000000     0.213300000000    -0.149      
C        C      0.731766666667     0.281400000000     0.012200000000     0.153      
C        C      0.788233333333     0.470100000000     0.039900000000     0.456      
C        C      0.766900000000     0.477950000000     0.382100000000     0.478      
C        C      0.777233333333     0.305200000000     0.178750000000    -0.003      
C        C      0.899766666667     0.477950000000     0.132100000000     0.491      
C        C      0.908333333333     0.032100000000     0.179200000000    -0.012      
C        C      0.888000000000     0.323650000000     0.287500000000    -0.168      
C        C      0.862900000000     0.356850000000     0.292350000000     0.458      
C        C      0.930666666667     0.066600000000     0.183450000000     0.014      
C        C      0.951766666667     0.075950000000     0.151200000000    -0.142      
C        C      0.746733333333     0.317800000000     0.377250000000    -0.177      
C        C      0.950433333333     0.255800000000     0.133900000000    -0.133      
C        C      0.778666666667     0.323650000000     0.037500000000    -0.198      
C        C      0.934900000000     0.281400000000     0.262200000000    -0.001      
C        C      0.798933333333     0.473400000000     0.226000000000     0.437      
C        C      0.884700000000     0.359200000000     0.478450000000     0.323      
C        C      0.892666666667     0.006900000000     0.303700000000    -0.117      
C        C      0.923866666667     0.068700000000     0.473100000000    -0.309      
C        C      0.757766666667     0.270300000000     0.174750000000     0.02       
C        C      0.774000000000     0.006900000000     0.053700000000    -0.116      
C        C      0.939766666667     0.106900000000     0.299800000000     0.516      
C        C      0.710600000000     0.269850000000     0.347100000000    -0.024      
C        C      0.781966666667     0.359200000000     0.228450000000     0.487      
C        C      0.751600000000     0.315650000000     0.007600000000     0.164      
C        C      0.867733333333     0.473400000000     0.476000000000     0.315      
C        C      0.730633333333     0.305350000000     0.344300000000     0.039      
C        C      0.978466666667     0.109400000000     0.145050000000     0.437      
C        C      0.783833333333     0.024200000000     0.088100000000    -0.018      
C        C      0.750400000000     0.015750000000     0.393100000000    -0.121      
C        C      0.737333333333     0.260350000000     0.206700000000    -0.167      
C        C      0.890933333333     0.008150000000     0.481750000000    -0.208      
C        C      0.889433333333     0.305200000000     0.428750000000    -0.043      
C        C      0.882833333333     0.024200000000     0.338100000000    -0.024      
C        C      0.735800000000     0.054900000000     0.258900000000     0.025      
C        C      0.956066666667     0.269850000000     0.097100000000    -0.017      
C        C      0.803766666667     0.356850000000     0.042350000000     0.472      
C        C      0.758333333333     0.032100000000     0.429200000000    -0.025      
C        C      0.742800000000     0.068700000000     0.223100000000    -0.169      
C        C      0.755666666667     0.019400000000     0.264500000000    -0.014      
C        C      0.916266666667     0.015750000000     0.143100000000    -0.123      
C        C      0.775733333333     0.008150000000     0.231750000000    -0.122      
C        C      0.688200000000     0.109400000000     0.395050000000     0.428      
C        C      0.714900000000     0.075950000000     0.401200000000    -0.146      
C        C      0.744433333333     0.263950000000     0.045400000000    -0.202      
C        C      0.699533333333     0.219600000000     0.399000000000     0.457      
C        C      0.911000000000     0.019400000000     0.014500000000     0.07       
C        C      0.936033333333     0.305350000000     0.094300000000     0.046      
C        C      0.929333333333     0.260350000000     0.456700000000    -0.164      
C        C      0.716233333333     0.255800000000     0.383900000000    -0.133      
C        C      0.736000000000     0.066600000000     0.433450000000     0.009      
C        C      0.713833333333     0.226050000000     0.214800000000     0.474      
C        C      0.728500000000     0.105400000000     0.207150000000     0.523      
C        C      0.922233333333     0.263950000000     0.295400000000    -0.165      
C        C      0.915066666667     0.315650000000     0.257600000000     0.017      
C        C      0.952833333333     0.226050000000     0.464800000000     0.471      
S        S      0.772933333333     0.040655000000     0.194835000000     0.082      
S        S      0.893733333333     0.040655000000     0.444835000000     0.101      
S        S      0.744366666667     0.034815000000     0.025060000000     0.147      
S        S      0.742000000000     0.285270000000     0.414025000000     0.043      
S        S      0.924666666667     0.285270000000     0.164025000000     0.069      
S        S      0.888900000000     0.289345000000     0.322100000000     0.076      
S        S      0.721033333333     0.042940000000     0.364125000000     0.064      
S        S      0.945633333333     0.042940000000     0.114125000000     0.077      
S        S      0.739366666667     0.293855000000     0.242760000000     0.072      
S        S      0.922300000000     0.034815000000     0.275060000000     0.081      
S        S      0.927300000000     0.293855000000     0.492760000000    -0.022      
S        S      0.777766666667     0.289345000000     0.072100000000     0.111      
O        O      0.714033333333     0.199850000000     0.188500000000    -0.643      
O        O      0.805733333333     0.380600000000     0.015100000000    -0.57       
O        O      0.735266666667     0.132350000000     0.073800000000    -0.602      
O        O      0.783666666667     0.359600000000     0.417200000000    -0.54       
O        O      0.779966666667     0.461200000000     0.004850000000    -0.468      
O        O      0.774200000000     0.367450000000     0.262850000000    -0.547      
O        O      0.961700000000     0.109950000000     0.270100000000    -0.553      
O        O      0.705233333333     0.212650000000     0.434850000000    -0.508      
O        O      0.930800000000     0.113300000000     0.422600000000    -0.608      
O        O      0.931166666667     0.216850000000     0.343850000000    -0.576      
O        O      0.865266666667     0.379150000000     0.453650000000    -0.513      
O        O      0.849566666667     0.468850000000     0.443000000000    -0.479      
O        O      0.817100000000     0.468850000000     0.193000000000    -0.508      
O        O      0.985933333333     0.199250000000     0.124650000000    -0.544      
O        O      0.886700000000     0.461200000000     0.254850000000    -0.542      
O        O      0.838966666667     0.414900000000     0.383650000000    -0.629      
O        O      0.671500000000     0.114200000000     0.362500000000    -0.49       
O        O      0.982666666667     0.131200000000     0.173750000000    -0.606      
O        O      0.866000000000     0.449900000000     0.002100000000    -0.532      
O        O      0.801400000000     0.379150000000     0.203650000000    -0.547      
O        O      0.680733333333     0.199250000000     0.374650000000    -0.546      
O        O      0.904566666667     0.378400000000     0.108100000000    -0.606      
O        O      0.735866666667     0.113300000000     0.172600000000    -0.597      
O        O      0.806600000000     0.450400000000     0.063600000000    -0.543      
O        O      0.684000000000     0.131200000000     0.423750000000    -0.593      
O        O      0.892466666667     0.367450000000     0.012850000000    -0.426      
O        O      0.769466666667     0.455300000000     0.410250000000    -0.589      
O        O      0.892066666667     0.471250000000     0.097250000000    -0.558      
O        O      0.695233333333     0.222950000000     0.245250000000    -0.509      
O        O      0.843833333333     0.360600000000     0.324550000000    -0.491      
O        O      0.860933333333     0.380600000000     0.265100000000    -0.635      
O        O      0.883000000000     0.359600000000     0.167200000000    -0.551      
O        O      0.800666666667     0.449900000000     0.252100000000    -0.651      
O        O      0.957733333333     0.125600000000     0.481100000000    -0.594      
O        O      0.860066666667     0.450400000000     0.313600000000    -0.552      
O        O      0.995166666667     0.114200000000     0.112500000000    -0.488      
O        O      0.735500000000     0.216850000000     0.093850000000    -0.571      
O        O      0.953933333333     0.206150000000     0.284100000000    -0.612      
O        O      0.704966666667     0.109950000000     0.020100000000    -0.476      
O        O      0.762100000000     0.378400000000     0.358100000000    -0.605      
O        O      0.712733333333     0.206150000000     0.034100000000    -0.539      
O        O      0.971433333333     0.222950000000     0.495250000000    -0.529      
O        O      0.708933333333     0.125600000000     0.231100000000    -0.569      
O        O      0.952633333333     0.199850000000     0.438500000000    -0.637      
O        O      0.931400000000     0.132350000000     0.323800000000    -0.62       
O        O      0.897200000000     0.455300000000     0.160250000000    -0.6        
O        O      0.774600000000     0.471250000000     0.347250000000    -0.559      
O        O      0.961433333333     0.212650000000     0.184850000000    -0.514      
O        O      0.827700000000     0.414900000000     0.133650000000    -0.644      
O        O      0.822833333333     0.360600000000     0.074550000000    -0.49       
Nd       Nd     0.869300000000     0.414445000000     0.561870000000     2.301      
Nd       Nd     0.985030000000     0.166390000000     0.736365000000     2.163      
Nd       Nd     0.803756666667     0.415515000000     0.954460000000     2.107      
Nd       Nd     0.681636666667     0.166390000000     0.986365000000     1.966      
Nd       Nd     0.713310000000     0.162700000000     0.630750000000     2.311      
Nd       Nd     0.797366666667     0.414445000000     0.811870000000     2.289      
Nd       Nd     0.953356666667     0.162700000000     0.880750000000     2.286      
Nd       Nd     0.862910000000     0.415515000000     0.704460000000     2.323      
H        H      0.911866666667     0.005800000000     0.537900000000     0.016      
H        H      0.930400000000     0.080800000000     0.706350000000     0.009      
H        H      0.754800000000     0.005800000000     0.787900000000     0.032      
H        H      0.856600000000     0.393150000000     0.883400000000     0.207      
H        H      0.720033333333     0.066700000000     0.777950000000     0.027      
H        H      0.856733333333     0.436500000000     0.882900000000     0.201      
H        H      0.866866666667     0.013250000000     0.857650000000     0.05       
H        H      0.746933333333     0.331600000000     0.986350000000    -0.122      
H        H      0.954133333333     0.271950000000     0.744750000000     0.028      
H        H      0.759166666667     0.255800000000     0.652050000000     0.012      
H        H      0.810066666667     0.393150000000     0.633400000000     0.212      
H        H      0.696100000000     0.258350000000     0.826950000000     0.044      
H        H      0.736266666667     0.080800000000     0.956350000000    -0.018      
H        H      0.907500000000     0.255800000000     0.902050000000     0.005      
H        H      0.809933333333     0.436500000000     0.632900000000     0.207      
H        H      0.946633333333     0.066700000000     0.527950000000    -0.001      
H        H      0.799800000000     0.013250000000     0.607650000000     0.05       
H        H      0.970566666667     0.258350000000     0.576950000000     0.062      
H        H      0.890900000000     0.022200000000     0.698150000000     0.041      
H        H      0.872800000000     0.315600000000     0.909450000000     0.046      
H        H      0.770633333333     0.075900000000     0.612950000000     0.006      
H        H      0.775766666667     0.022200000000     0.948150000000     0.021      
H        H      0.919733333333     0.331600000000     0.736350000000    -0.006      
H        H      0.934500000000     0.318650000000     0.570750000000     0.029      
H        H      0.712533333333     0.271950000000     0.994750000000    -0.09       
H        H      0.896033333333     0.075900000000     0.862950000000     0.003      
H        H      0.732166666667     0.318650000000     0.820750000000     0.011      
H        H      0.793866666667     0.315600000000     0.659450000000     0.035      
C        C      0.745733333333     0.070100000000     0.558350000000    -0.174      
C        C      0.920933333333     0.070100000000     0.808350000000    -0.178      
C        C      0.729600000000     0.225400000000     0.558450000000     0.555      
C        C      0.908900000000     0.270300000000     0.924750000000     0.028      
C        C      0.937066666667     0.225400000000     0.808450000000     0.545      
C        C      0.767233333333     0.060500000000     0.591150000000     0.04       
C        C      0.938166666667     0.105400000000     0.957150000000     0.553      
C        C      0.899433333333     0.060500000000     0.841150000000     0.037      
C        C      0.967133333333     0.219600000000     0.649000000000     0.464      
C        C      0.765966666667     0.354550000000     0.884800000000     0.512      
C        C      0.897533333333     0.321750000000     0.963300000000    -0.102      
C        C      0.726900000000     0.106900000000     0.549800000000     0.51       
C        C      0.900700000000     0.354550000000     0.634800000000     0.521      
C        C      0.930866666667     0.054900000000     0.508900000000     0.173      
C        C      0.919933333333     0.317800000000     0.627250000000    -0.179      
C        C      0.878433333333     0.470100000000     0.789900000000     0.46       
C        C      0.769133333333     0.321750000000     0.713300000000    -0.149      
C        C      0.731766666667     0.281400000000     0.512200000000     0.153      
C        C      0.788233333333     0.470100000000     0.539900000000     0.456      
C        C      0.766900000000     0.477950000000     0.882100000000     0.478      
C        C      0.777233333333     0.305200000000     0.678750000000    -0.003      
C        C      0.899766666667     0.477950000000     0.632100000000     0.491      
C        C      0.908333333333     0.032100000000     0.679200000000    -0.012      
C        C      0.888000000000     0.323650000000     0.787500000000    -0.168      
C        C      0.862900000000     0.356850000000     0.792350000000     0.458      
C        C      0.930666666667     0.066600000000     0.683450000000     0.014      
C        C      0.951766666667     0.075950000000     0.651200000000    -0.142      
C        C      0.746733333333     0.317800000000     0.877250000000    -0.177      
C        C      0.950433333333     0.255800000000     0.633900000000    -0.133      
C        C      0.778666666667     0.323650000000     0.537500000000    -0.198      
C        C      0.934900000000     0.281400000000     0.762200000000    -0.001      
C        C      0.798933333333     0.473400000000     0.726000000000     0.437      
C        C      0.884700000000     0.359200000000     0.978450000000     0.323      
C        C      0.892666666667     0.006900000000     0.803700000000    -0.117      
C        C      0.923866666667     0.068700000000     0.973100000000    -0.309      
C        C      0.757766666667     0.270300000000     0.674750000000     0.02       
C        C      0.774000000000     0.006900000000     0.553700000000    -0.116      
C        C      0.939766666667     0.106900000000     0.799800000000     0.516      
C        C      0.710600000000     0.269850000000     0.847100000000    -0.024      
C        C      0.781966666667     0.359200000000     0.728450000000     0.487      
C        C      0.751600000000     0.315650000000     0.507600000000     0.164      
C        C      0.867733333333     0.473400000000     0.976000000000     0.315      
C        C      0.730633333333     0.305350000000     0.844300000000     0.039      
C        C      0.978466666667     0.109400000000     0.645050000000     0.437      
C        C      0.783833333333     0.024200000000     0.588100000000    -0.018      
C        C      0.750400000000     0.015750000000     0.893100000000    -0.121      
C        C      0.737333333333     0.260350000000     0.706700000000    -0.167      
C        C      0.890933333333     0.008150000000     0.981750000000    -0.208      
C        C      0.889433333333     0.305200000000     0.928750000000    -0.043      
C        C      0.882833333333     0.024200000000     0.838100000000    -0.024      
C        C      0.735800000000     0.054900000000     0.758900000000     0.025      
C        C      0.956066666667     0.269850000000     0.597100000000    -0.017      
C        C      0.803766666667     0.356850000000     0.542350000000     0.472      
C        C      0.758333333333     0.032100000000     0.929200000000    -0.025      
C        C      0.742800000000     0.068700000000     0.723100000000    -0.169      
C        C      0.755666666667     0.019400000000     0.764500000000    -0.014      
C        C      0.916266666667     0.015750000000     0.643100000000    -0.123      
C        C      0.775733333333     0.008150000000     0.731750000000    -0.122      
C        C      0.688200000000     0.109400000000     0.895050000000     0.428      
C        C      0.714900000000     0.075950000000     0.901200000000    -0.146      
C        C      0.744433333333     0.263950000000     0.545400000000    -0.202      
C        C      0.699533333333     0.219600000000     0.899000000000     0.457      
C        C      0.911000000000     0.019400000000     0.514500000000     0.07       
C        C      0.936033333333     0.305350000000     0.594300000000     0.046      
C        C      0.929333333333     0.260350000000     0.956700000000    -0.164      
C        C      0.716233333333     0.255800000000     0.883900000000    -0.133      
C        C      0.736000000000     0.066600000000     0.933450000000     0.009      
C        C      0.713833333333     0.226050000000     0.714800000000     0.474      
C        C      0.728500000000     0.105400000000     0.707150000000     0.523      
C        C      0.922233333333     0.263950000000     0.795400000000    -0.165      
C        C      0.915066666667     0.315650000000     0.757600000000     0.017      
C        C      0.952833333333     0.226050000000     0.964800000000     0.471      
S        S      0.772933333333     0.040655000000     0.694835000000     0.082      
S        S      0.893733333333     0.040655000000     0.944835000000     0.101      
S        S      0.744366666667     0.034815000000     0.525060000000     0.147      
S        S      0.742000000000     0.285270000000     0.914025000000     0.043      
S        S      0.924666666667     0.285270000000     0.664025000000     0.069      
S        S      0.888900000000     0.289345000000     0.822100000000     0.076      
S        S      0.721033333333     0.042940000000     0.864125000000     0.064      
S        S      0.945633333333     0.042940000000     0.614125000000     0.077      
S        S      0.739366666667     0.293855000000     0.742760000000     0.072      
S        S      0.922300000000     0.034815000000     0.775060000000     0.081      
S        S      0.927300000000     0.293855000000     0.992760000000    -0.022      
S        S      0.777766666667     0.289345000000     0.572100000000     0.111      
O        O      0.714033333333     0.199850000000     0.688500000000    -0.643      
O        O      0.805733333333     0.380600000000     0.515100000000    -0.57       
O        O      0.735266666667     0.132350000000     0.573800000000    -0.602      
O        O      0.783666666667     0.359600000000     0.917200000000    -0.54       
O        O      0.779966666667     0.461200000000     0.504850000000    -0.468      
O        O      0.774200000000     0.367450000000     0.762850000000    -0.547      
O        O      0.961700000000     0.109950000000     0.770100000000    -0.553      
O        O      0.705233333333     0.212650000000     0.934850000000    -0.508      
O        O      0.930800000000     0.113300000000     0.922600000000    -0.608      
O        O      0.931166666667     0.216850000000     0.843850000000    -0.576      
O        O      0.865266666667     0.379150000000     0.953650000000    -0.513      
O        O      0.849566666667     0.468850000000     0.943000000000    -0.479      
O        O      0.817100000000     0.468850000000     0.693000000000    -0.508      
O        O      0.985933333333     0.199250000000     0.624650000000    -0.544      
O        O      0.886700000000     0.461200000000     0.754850000000    -0.542      
O        O      0.838966666667     0.414900000000     0.883650000000    -0.629      
O        O      0.671500000000     0.114200000000     0.862500000000    -0.49       
O        O      0.982666666667     0.131200000000     0.673750000000    -0.606      
O        O      0.866000000000     0.449900000000     0.502100000000    -0.532      
O        O      0.801400000000     0.379150000000     0.703650000000    -0.547      
O        O      0.680733333333     0.199250000000     0.874650000000    -0.546      
O        O      0.904566666667     0.378400000000     0.608100000000    -0.606      
O        O      0.735866666667     0.113300000000     0.672600000000    -0.597      
O        O      0.806600000000     0.450400000000     0.563600000000    -0.543      
O        O      0.684000000000     0.131200000000     0.923750000000    -0.593      
O        O      0.892466666667     0.367450000000     0.512850000000    -0.426      
O        O      0.769466666667     0.455300000000     0.910250000000    -0.589      
O        O      0.892066666667     0.471250000000     0.597250000000    -0.558      
O        O      0.695233333333     0.222950000000     0.745250000000    -0.509      
O        O      0.843833333333     0.360600000000     0.824550000000    -0.491      
O        O      0.860933333333     0.380600000000     0.765100000000    -0.635      
O        O      0.883000000000     0.359600000000     0.667200000000    -0.551      
O        O      0.800666666667     0.449900000000     0.752100000000    -0.651      
O        O      0.957733333333     0.125600000000     0.981100000000    -0.594      
O        O      0.860066666667     0.450400000000     0.813600000000    -0.552      
O        O      0.995166666667     0.114200000000     0.612500000000    -0.488      
O        O      0.735500000000     0.216850000000     0.593850000000    -0.571      
O        O      0.953933333333     0.206150000000     0.784100000000    -0.612      
O        O      0.704966666667     0.109950000000     0.520100000000    -0.476      
O        O      0.762100000000     0.378400000000     0.858100000000    -0.605      
O        O      0.712733333333     0.206150000000     0.534100000000    -0.539      
O        O      0.971433333333     0.222950000000     0.995250000000    -0.529      
O        O      0.708933333333     0.125600000000     0.731100000000    -0.569      
O        O      0.952633333333     0.199850000000     0.938500000000    -0.637      
O        O      0.931400000000     0.132350000000     0.823800000000    -0.62       
O        O      0.897200000000     0.455300000000     0.660250000000    -0.6        
O        O      0.774600000000     0.471250000000     0.847250000000    -0.559      
O        O      0.961433333333     0.212650000000     0.684850000000    -0.514      
O        O      0.827700000000     0.414900000000     0.633650000000    -0.644      
O        O      0.822833333333     0.360600000000     0.574550000000    -0.49       
Nd       Nd     0.869300000000     0.914445000000     0.061870000000     2.301      
Nd       Nd     0.985030000000     0.666390000000     0.236365000000     2.163      
Nd       Nd     0.803756666667     0.915515000000     0.454460000000     2.107      
Nd       Nd     0.681636666667     0.666390000000     0.486365000000     1.966      
Nd       Nd     0.713310000000     0.662700000000     0.130750000000     2.311      
Nd       Nd     0.797366666667     0.914445000000     0.311870000000     2.289      
Nd       Nd     0.953356666667     0.662700000000     0.380750000000     2.286      
Nd       Nd     0.862910000000     0.915515000000     0.204460000000     2.323      
H        H      0.911866666667     0.505800000000     0.037900000000     0.016      
H        H      0.930400000000     0.580800000000     0.206350000000     0.009      
H        H      0.754800000000     0.505800000000     0.287900000000     0.032      
H        H      0.856600000000     0.893150000000     0.383400000000     0.207      
H        H      0.720033333333     0.566700000000     0.277950000000     0.027      
H        H      0.856733333333     0.936500000000     0.382900000000     0.201      
H        H      0.866866666667     0.513250000000     0.357650000000     0.05       
H        H      0.746933333333     0.831600000000     0.486350000000    -0.122      
H        H      0.954133333333     0.771950000000     0.244750000000     0.028      
H        H      0.759166666667     0.755800000000     0.152050000000     0.012      
H        H      0.810066666667     0.893150000000     0.133400000000     0.212      
H        H      0.696100000000     0.758350000000     0.326950000000     0.044      
H        H      0.736266666667     0.580800000000     0.456350000000    -0.018      
H        H      0.907500000000     0.755800000000     0.402050000000     0.005      
H        H      0.809933333333     0.936500000000     0.132900000000     0.207      
H        H      0.946633333333     0.566700000000     0.027950000000    -0.001      
H        H      0.799800000000     0.513250000000     0.107650000000     0.05       
H        H      0.970566666667     0.758350000000     0.076950000000     0.062      
H        H      0.890900000000     0.522200000000     0.198150000000     0.041      
H        H      0.872800000000     0.815600000000     0.409450000000     0.046      
H        H      0.770633333333     0.575900000000     0.112950000000     0.006      
H        H      0.775766666667     0.522200000000     0.448150000000     0.021      
H        H      0.919733333333     0.831600000000     0.236350000000    -0.006      
H        H      0.934500000000     0.818650000000     0.070750000000     0.029      
H        H      0.712533333333     0.771950000000     0.494750000000    -0.09       
H        H      0.896033333333     0.575900000000     0.362950000000     0.003      
H        H      0.732166666667     0.818650000000     0.320750000000     0.011      
H        H      0.793866666667     0.815600000000     0.159450000000     0.035      
C        C      0.745733333333     0.570100000000     0.058350000000    -0.174      
C        C      0.920933333333     0.570100000000     0.308350000000    -0.178      
C        C      0.729600000000     0.725400000000     0.058450000000     0.555      
C        C      0.908900000000     0.770300000000     0.424750000000     0.028      
C        C      0.937066666667     0.725400000000     0.308450000000     0.545      
C        C      0.767233333333     0.560500000000     0.091150000000     0.04       
C        C      0.938166666667     0.605400000000     0.457150000000     0.553      
C        C      0.899433333333     0.560500000000     0.341150000000     0.037      
C        C      0.967133333333     0.719600000000     0.149000000000     0.464      
C        C      0.765966666667     0.854550000000     0.384800000000     0.512      
C        C      0.897533333333     0.821750000000     0.463300000000    -0.102      
C        C      0.726900000000     0.606900000000     0.049800000000     0.51       
C        C      0.900700000000     0.854550000000     0.134800000000     0.521      
C        C      0.930866666667     0.554900000000     0.008900000000     0.173      
C        C      0.919933333333     0.817800000000     0.127250000000    -0.179      
C        C      0.878433333333     0.970100000000     0.289900000000     0.46       
C        C      0.769133333333     0.821750000000     0.213300000000    -0.149      
C        C      0.731766666667     0.781400000000     0.012200000000     0.153      
C        C      0.788233333333     0.970100000000     0.039900000000     0.456      
C        C      0.766900000000     0.977950000000     0.382100000000     0.478      
C        C      0.777233333333     0.805200000000     0.178750000000    -0.003      
C        C      0.899766666667     0.977950000000     0.132100000000     0.491      
C        C      0.908333333333     0.532100000000     0.179200000000    -0.012      
C        C      0.888000000000     0.823650000000     0.287500000000    -0.168      
C        C      0.862900000000     0.856850000000     0.292350000000     0.458      
C        C      0.930666666667     0.566600000000     0.183450000000     0.014      
C        C      0.951766666667     0.575950000000     0.151200000000    -0.142      
C        C      0.746733333333     0.817800000000     0.377250000000    -0.177      
C        C      0.950433333333     0.755800000000     0.133900000000    -0.133      
C        C      0.778666666667     0.823650000000     0.037500000000    -0.198      
C        C      0.934900000000     0.781400000000     0.262200000000    -0.001      
C        C      0.798933333333     0.973400000000     0.226000000000     0.437      
C        C      0.884700000000     0.859200000000     0.478450000000     0.323      
C        C      0.892666666667     0.506900000000     0.303700000000    -0.117      
C        C      0.923866666667     0.568700000000     0.473100000000    -0.309      
C        C      0.757766666667     0.770300000000     0.174750000000     0.02       
C        C      0.774000000000     0.506900000000     0.053700000000    -0.116      
C        C      0.939766666667     0.606900000000     0.299800000000     0.516      
C        C      0.710600000000     0.769850000000     0.347100000000    -0.024      
C        C      0.781966666667     0.859200000000     0.228450000000     0.487      
C        C      0.751600000000     0.815650000000     0.007600000000     0.164      
C        C      0.867733333333     0.973400000000     0.476000000000     0.315      
C        C      0.730633333333     0.805350000000     0.344300000000     0.039      
C        C      0.978466666667     0.609400000000     0.145050000000     0.437      
C        C      0.783833333333     0.524200000000     0.088100000000    -0.018      
C        C      0.750400000000     0.515750000000     0.393100000000    -0.121      
C        C      0.737333333333     0.760350000000     0.206700000000    -0.167      
C        C      0.890933333333     0.508150000000     0.481750000000    -0.208      
C        C      0.889433333333     0.805200000000     0.428750000000    -0.043      
C        C      0.882833333333     0.524200000000     0.338100000000    -0.024      
C        C      0.735800000000     0.554900000000     0.258900000000     0.025      
C        C      0.956066666667     0.769850000000     0.097100000000    -0.017      
C        C      0.803766666667     0.856850000000     0.042350000000     0.472      
C        C      0.758333333333     0.532100000000     0.429200000000    -0.025      
C        C      0.742800000000     0.568700000000     0.223100000000    -0.169      
C        C      0.755666666667     0.519400000000     0.264500000000    -0.014      
C        C      0.916266666667     0.515750000000     0.143100000000    -0.123      
C        C      0.775733333333     0.508150000000     0.231750000000    -0.122      
C        C      0.688200000000     0.609400000000     0.395050000000     0.428      
C        C      0.714900000000     0.575950000000     0.401200000000    -0.146      
C        C      0.744433333333     0.763950000000     0.045400000000    -0.202      
C        C      0.699533333333     0.719600000000     0.399000000000     0.457      
C        C      0.911000000000     0.519400000000     0.014500000000     0.07       
C        C      0.936033333333     0.805350000000     0.094300000000     0.046      
C        C      0.929333333333     0.760350000000     0.456700000000    -0.164      
C        C      0.716233333333     0.755800000000     0.383900000000    -0.133      
C        C      0.736000000000     0.566600000000     0.433450000000     0.009      
C        C      0.713833333333     0.726050000000     0.214800000000     0.474      
C        C      0.728500000000     0.605400000000     0.207150000000     0.523      
C        C      0.922233333333     0.763950000000     0.295400000000    -0.165      
C        C      0.915066666667     0.815650000000     0.257600000000     0.017      
C        C      0.952833333333     0.726050000000     0.464800000000     0.471      
S        S      0.772933333333     0.540655000000     0.194835000000     0.082      
S        S      0.893733333333     0.540655000000     0.444835000000     0.101      
S        S      0.744366666667     0.534815000000     0.025060000000     0.147      
S        S      0.742000000000     0.785270000000     0.414025000000     0.043      
S        S      0.924666666667     0.785270000000     0.164025000000     0.069      
S        S      0.888900000000     0.789345000000     0.322100000000     0.076      
S        S      0.721033333333     0.542940000000     0.364125000000     0.064      
S        S      0.945633333333     0.542940000000     0.114125000000     0.077      
S        S      0.739366666667     0.793855000000     0.242760000000     0.072      
S        S      0.922300000000     0.534815000000     0.275060000000     0.081      
S        S      0.927300000000     0.793855000000     0.492760000000    -0.022      
S        S      0.777766666667     0.789345000000     0.072100000000     0.111      
O        O      0.714033333333     0.699850000000     0.188500000000    -0.643      
O        O      0.805733333333     0.880600000000     0.015100000000    -0.57       
O        O      0.735266666667     0.632350000000     0.073800000000    -0.602      
O        O      0.783666666667     0.859600000000     0.417200000000    -0.54       
O        O      0.779966666667     0.961200000000     0.004850000000    -0.468      
O        O      0.774200000000     0.867450000000     0.262850000000    -0.547      
O        O      0.961700000000     0.609950000000     0.270100000000    -0.553      
O        O      0.705233333333     0.712650000000     0.434850000000    -0.508      
O        O      0.930800000000     0.613300000000     0.422600000000    -0.608      
O        O      0.931166666667     0.716850000000     0.343850000000    -0.576      
O        O      0.865266666667     0.879150000000     0.453650000000    -0.513      
O        O      0.849566666667     0.968850000000     0.443000000000    -0.479      
O        O      0.817100000000     0.968850000000     0.193000000000    -0.508      
O        O      0.985933333333     0.699250000000     0.124650000000    -0.544      
O        O      0.886700000000     0.961200000000     0.254850000000    -0.542      
O        O      0.838966666667     0.914900000000     0.383650000000    -0.629      
O        O      0.671500000000     0.614200000000     0.362500000000    -0.49       
O        O      0.982666666667     0.631200000000     0.173750000000    -0.606      
O        O      0.866000000000     0.949900000000     0.002100000000    -0.532      
O        O      0.801400000000     0.879150000000     0.203650000000    -0.547      
O        O      0.680733333333     0.699250000000     0.374650000000    -0.546      
O        O      0.904566666667     0.878400000000     0.108100000000    -0.606      
O        O      0.735866666667     0.613300000000     0.172600000000    -0.597      
O        O      0.806600000000     0.950400000000     0.063600000000    -0.543      
O        O      0.684000000000     0.631200000000     0.423750000000    -0.593      
O        O      0.892466666667     0.867450000000     0.012850000000    -0.426      
O        O      0.769466666667     0.955300000000     0.410250000000    -0.589      
O        O      0.892066666667     0.971250000000     0.097250000000    -0.558      
O        O      0.695233333333     0.722950000000     0.245250000000    -0.509      
O        O      0.843833333333     0.860600000000     0.324550000000    -0.491      
O        O      0.860933333333     0.880600000000     0.265100000000    -0.635      
O        O      0.883000000000     0.859600000000     0.167200000000    -0.551      
O        O      0.800666666667     0.949900000000     0.252100000000    -0.651      
O        O      0.957733333333     0.625600000000     0.481100000000    -0.594      
O        O      0.860066666667     0.950400000000     0.313600000000    -0.552      
O        O      0.995166666667     0.614200000000     0.112500000000    -0.488      
O        O      0.735500000000     0.716850000000     0.093850000000    -0.571      
O        O      0.953933333333     0.706150000000     0.284100000000    -0.612      
O        O      0.704966666667     0.609950000000     0.020100000000    -0.476      
O        O      0.762100000000     0.878400000000     0.358100000000    -0.605      
O        O      0.712733333333     0.706150000000     0.034100000000    -0.539      
O        O      0.971433333333     0.722950000000     0.495250000000    -0.529      
O        O      0.708933333333     0.625600000000     0.231100000000    -0.569      
O        O      0.952633333333     0.699850000000     0.438500000000    -0.637      
O        O      0.931400000000     0.632350000000     0.323800000000    -0.62       
O        O      0.897200000000     0.955300000000     0.160250000000    -0.6        
O        O      0.774600000000     0.971250000000     0.347250000000    -0.559      
O        O      0.961433333333     0.712650000000     0.184850000000    -0.514      
O        O      0.827700000000     0.914900000000     0.133650000000    -0.644      
O        O      0.822833333333     0.860600000000     0.074550000000    -0.49       
Nd       Nd     0.869300000000     0.914445000000     0.561870000000     2.301      
Nd       Nd     0.985030000000     0.666390000000     0.736365000000     2.163      
Nd       Nd     0.803756666667     0.915515000000     0.954460000000     2.107      
Nd       Nd     0.681636666667     0.666390000000     0.986365000000     1.966      
Nd       Nd     0.713310000000     0.662700000000     0.630750000000     2.311      
Nd       Nd     0.797366666667     0.914445000000     0.811870000000     2.289      
Nd       Nd     0.953356666667     0.662700000000     0.880750000000     2.286      
Nd       Nd     0.862910000000     0.915515000000     0.704460000000     2.323      
H        H      0.911866666667     0.505800000000     0.537900000000     0.016      
H        H      0.930400000000     0.580800000000     0.706350000000     0.009      
H        H      0.754800000000     0.505800000000     0.787900000000     0.032      
H        H      0.856600000000     0.893150000000     0.883400000000     0.207      
H        H      0.720033333333     0.566700000000     0.777950000000     0.027      
H        H      0.856733333333     0.936500000000     0.882900000000     0.201      
H        H      0.866866666667     0.513250000000     0.857650000000     0.05       
H        H      0.746933333333     0.831600000000     0.986350000000    -0.122      
H        H      0.954133333333     0.771950000000     0.744750000000     0.028      
H        H      0.759166666667     0.755800000000     0.652050000000     0.012      
H        H      0.810066666667     0.893150000000     0.633400000000     0.212      
H        H      0.696100000000     0.758350000000     0.826950000000     0.044      
H        H      0.736266666667     0.580800000000     0.956350000000    -0.018      
H        H      0.907500000000     0.755800000000     0.902050000000     0.005      
H        H      0.809933333333     0.936500000000     0.632900000000     0.207      
H        H      0.946633333333     0.566700000000     0.527950000000    -0.001      
H        H      0.799800000000     0.513250000000     0.607650000000     0.05       
H        H      0.970566666667     0.758350000000     0.576950000000     0.062      
H        H      0.890900000000     0.522200000000     0.698150000000     0.041      
H        H      0.872800000000     0.815600000000     0.909450000000     0.046      
H        H      0.770633333333     0.575900000000     0.612950000000     0.006      
H        H      0.775766666667     0.522200000000     0.948150000000     0.021      
H        H      0.919733333333     0.831600000000     0.736350000000    -0.006      
H        H      0.934500000000     0.818650000000     0.570750000000     0.029      
H        H      0.712533333333     0.771950000000     0.994750000000    -0.09       
H        H      0.896033333333     0.575900000000     0.862950000000     0.003      
H        H      0.732166666667     0.818650000000     0.820750000000     0.011      
H        H      0.793866666667     0.815600000000     0.659450000000     0.035      
C        C      0.745733333333     0.570100000000     0.558350000000    -0.174      
C        C      0.920933333333     0.570100000000     0.808350000000    -0.178      
C        C      0.729600000000     0.725400000000     0.558450000000     0.555      
C        C      0.908900000000     0.770300000000     0.924750000000     0.028      
C        C      0.937066666667     0.725400000000     0.808450000000     0.545      
C        C      0.767233333333     0.560500000000     0.591150000000     0.04       
C        C      0.938166666667     0.605400000000     0.957150000000     0.553      
C        C      0.899433333333     0.560500000000     0.841150000000     0.037      
C        C      0.967133333333     0.719600000000     0.649000000000     0.464      
C        C      0.765966666667     0.854550000000     0.884800000000     0.512      
C        C      0.897533333333     0.821750000000     0.963300000000    -0.102      
C        C      0.726900000000     0.606900000000     0.549800000000     0.51       
C        C      0.900700000000     0.854550000000     0.634800000000     0.521      
C        C      0.930866666667     0.554900000000     0.508900000000     0.173      
C        C      0.919933333333     0.817800000000     0.627250000000    -0.179      
C        C      0.878433333333     0.970100000000     0.789900000000     0.46       
C        C      0.769133333333     0.821750000000     0.713300000000    -0.149      
C        C      0.731766666667     0.781400000000     0.512200000000     0.153      
C        C      0.788233333333     0.970100000000     0.539900000000     0.456      
C        C      0.766900000000     0.977950000000     0.882100000000     0.478      
C        C      0.777233333333     0.805200000000     0.678750000000    -0.003      
C        C      0.899766666667     0.977950000000     0.632100000000     0.491      
C        C      0.908333333333     0.532100000000     0.679200000000    -0.012      
C        C      0.888000000000     0.823650000000     0.787500000000    -0.168      
C        C      0.862900000000     0.856850000000     0.792350000000     0.458      
C        C      0.930666666667     0.566600000000     0.683450000000     0.014      
C        C      0.951766666667     0.575950000000     0.651200000000    -0.142      
C        C      0.746733333333     0.817800000000     0.877250000000    -0.177      
C        C      0.950433333333     0.755800000000     0.633900000000    -0.133      
C        C      0.778666666667     0.823650000000     0.537500000000    -0.198      
C        C      0.934900000000     0.781400000000     0.762200000000    -0.001      
C        C      0.798933333333     0.973400000000     0.726000000000     0.437      
C        C      0.884700000000     0.859200000000     0.978450000000     0.323      
C        C      0.892666666667     0.506900000000     0.803700000000    -0.117      
C        C      0.923866666667     0.568700000000     0.973100000000    -0.309      
C        C      0.757766666667     0.770300000000     0.674750000000     0.02       
C        C      0.774000000000     0.506900000000     0.553700000000    -0.116      
C        C      0.939766666667     0.606900000000     0.799800000000     0.516      
C        C      0.710600000000     0.769850000000     0.847100000000    -0.024      
C        C      0.781966666667     0.859200000000     0.728450000000     0.487      
C        C      0.751600000000     0.815650000000     0.507600000000     0.164      
C        C      0.867733333333     0.973400000000     0.976000000000     0.315      
C        C      0.730633333333     0.805350000000     0.844300000000     0.039      
C        C      0.978466666667     0.609400000000     0.645050000000     0.437      
C        C      0.783833333333     0.524200000000     0.588100000000    -0.018      
C        C      0.750400000000     0.515750000000     0.893100000000    -0.121      
C        C      0.737333333333     0.760350000000     0.706700000000    -0.167      
C        C      0.890933333333     0.508150000000     0.981750000000    -0.208      
C        C      0.889433333333     0.805200000000     0.928750000000    -0.043      
C        C      0.882833333333     0.524200000000     0.838100000000    -0.024      
C        C      0.735800000000     0.554900000000     0.758900000000     0.025      
C        C      0.956066666667     0.769850000000     0.597100000000    -0.017      
C        C      0.803766666667     0.856850000000     0.542350000000     0.472      
C        C      0.758333333333     0.532100000000     0.929200000000    -0.025      
C        C      0.742800000000     0.568700000000     0.723100000000    -0.169      
C        C      0.755666666667     0.519400000000     0.764500000000    -0.014      
C        C      0.916266666667     0.515750000000     0.643100000000    -0.123      
C        C      0.775733333333     0.508150000000     0.731750000000    -0.122      
C        C      0.688200000000     0.609400000000     0.895050000000     0.428      
C        C      0.714900000000     0.575950000000     0.901200000000    -0.146      
C        C      0.744433333333     0.763950000000     0.545400000000    -0.202      
C        C      0.699533333333     0.719600000000     0.899000000000     0.457      
C        C      0.911000000000     0.519400000000     0.514500000000     0.07       
C        C      0.936033333333     0.805350000000     0.594300000000     0.046      
C        C      0.929333333333     0.760350000000     0.956700000000    -0.164      
C        C      0.716233333333     0.755800000000     0.883900000000    -0.133      
C        C      0.736000000000     0.566600000000     0.933450000000     0.009      
C        C      0.713833333333     0.726050000000     0.714800000000     0.474      
C        C      0.728500000000     0.605400000000     0.707150000000     0.523      
C        C      0.922233333333     0.763950000000     0.795400000000    -0.165      
C        C      0.915066666667     0.815650000000     0.757600000000     0.017      
C        C      0.952833333333     0.726050000000     0.964800000000     0.471      
S        S      0.772933333333     0.540655000000     0.694835000000     0.082      
S        S      0.893733333333     0.540655000000     0.944835000000     0.101      
S        S      0.744366666667     0.534815000000     0.525060000000     0.147      
S        S      0.742000000000     0.785270000000     0.914025000000     0.043      
S        S      0.924666666667     0.785270000000     0.664025000000     0.069      
S        S      0.888900000000     0.789345000000     0.822100000000     0.076      
S        S      0.721033333333     0.542940000000     0.864125000000     0.064      
S        S      0.945633333333     0.542940000000     0.614125000000     0.077      
S        S      0.739366666667     0.793855000000     0.742760000000     0.072      
S        S      0.922300000000     0.534815000000     0.775060000000     0.081      
S        S      0.927300000000     0.793855000000     0.992760000000    -0.022      
S        S      0.777766666667     0.789345000000     0.572100000000     0.111      
O        O      0.714033333333     0.699850000000     0.688500000000    -0.643      
O        O      0.805733333333     0.880600000000     0.515100000000    -0.57       
O        O      0.735266666667     0.632350000000     0.573800000000    -0.602      
O        O      0.783666666667     0.859600000000     0.917200000000    -0.54       
O        O      0.779966666667     0.961200000000     0.504850000000    -0.468      
O        O      0.774200000000     0.867450000000     0.762850000000    -0.547      
O        O      0.961700000000     0.609950000000     0.770100000000    -0.553      
O        O      0.705233333333     0.712650000000     0.934850000000    -0.508      
O        O      0.930800000000     0.613300000000     0.922600000000    -0.608      
O        O      0.931166666667     0.716850000000     0.843850000000    -0.576      
O        O      0.865266666667     0.879150000000     0.953650000000    -0.513      
O        O      0.849566666667     0.968850000000     0.943000000000    -0.479      
O        O      0.817100000000     0.968850000000     0.693000000000    -0.508      
O        O      0.985933333333     0.699250000000     0.624650000000    -0.544      
O        O      0.886700000000     0.961200000000     0.754850000000    -0.542      
O        O      0.838966666667     0.914900000000     0.883650000000    -0.629      
O        O      0.671500000000     0.614200000000     0.862500000000    -0.49       
O        O      0.982666666667     0.631200000000     0.673750000000    -0.606      
O        O      0.866000000000     0.949900000000     0.502100000000    -0.532      
O        O      0.801400000000     0.879150000000     0.703650000000    -0.547      
O        O      0.680733333333     0.699250000000     0.874650000000    -0.546      
O        O      0.904566666667     0.878400000000     0.608100000000    -0.606      
O        O      0.735866666667     0.613300000000     0.672600000000    -0.597      
O        O      0.806600000000     0.950400000000     0.563600000000    -0.543      
O        O      0.684000000000     0.631200000000     0.923750000000    -0.593      
O        O      0.892466666667     0.867450000000     0.512850000000    -0.426      
O        O      0.769466666667     0.955300000000     0.910250000000    -0.589      
O        O      0.892066666667     0.971250000000     0.597250000000    -0.558      
O        O      0.695233333333     0.722950000000     0.745250000000    -0.509      
O        O      0.843833333333     0.860600000000     0.824550000000    -0.491      
O        O      0.860933333333     0.880600000000     0.765100000000    -0.635      
O        O      0.883000000000     0.859600000000     0.667200000000    -0.551      
O        O      0.800666666667     0.949900000000     0.752100000000    -0.651      
O        O      0.957733333333     0.625600000000     0.981100000000    -0.594      
O        O      0.860066666667     0.950400000000     0.813600000000    -0.552      
O        O      0.995166666667     0.614200000000     0.612500000000    -0.488      
O        O      0.735500000000     0.716850000000     0.593850000000    -0.571      
O        O      0.953933333333     0.706150000000     0.784100000000    -0.612      
O        O      0.704966666667     0.609950000000     0.520100000000    -0.476      
O        O      0.762100000000     0.878400000000     0.858100000000    -0.605      
O        O      0.712733333333     0.706150000000     0.534100000000    -0.539      
O        O      0.971433333333     0.722950000000     0.995250000000    -0.529      
O        O      0.708933333333     0.625600000000     0.731100000000    -0.569      
O        O      0.952633333333     0.699850000000     0.938500000000    -0.637      
O        O      0.931400000000     0.632350000000     0.823800000000    -0.62       
O        O      0.897200000000     0.955300000000     0.660250000000    -0.6        
O        O      0.774600000000     0.971250000000     0.847250000000    -0.559      
O        O      0.961433333333     0.712650000000     0.684850000000    -0.514      
O        O      0.827700000000     0.914900000000     0.633650000000    -0.644      
O        O      0.822833333333     0.860600000000     0.574550000000    -0.49       


