data_TUMROK_clean_DDEC

_audit_creation_method RASPA-1.0
_audit_creation_date 2025-9-8
_audit_author_name ''

_cell_length_a    9.8767
_cell_length_b    17.4389
_cell_length_c    12.0177
_cell_angle_alpha 90
_cell_angle_beta  97.458
_cell_angle_gamma 90
_cell_volume      36943.3

_symmetry_cell_setting          triclinic
_symmetry_space_group_name_Hall 'P 1'
_symmetry_space_group_name_H-M  'P 1'
_symmetry_Int_Tables_number     1

_symmetry_equiv_pos_as_xyz 'x,y,z'

loop_
_atom_site_label
_atom_site_type_symbol
_atom_site_fract_x
_atom_site_fract_y
_atom_site_fract_z
_atom_site_charge
C1       C      0.107700000000     0.041150000000     0.061200000000    -0.211024   
C1       C      0.107700000000     0.041150000000     0.394533333333    -0.211024   
C1       C      0.107700000000     0.041150000000     0.727866666667    -0.211024   
C1       C      0.107700000000     0.541150000000     0.061200000000    -0.211024   
C1       C      0.107700000000     0.541150000000     0.394533333333    -0.211024   
C1       C      0.107700000000     0.541150000000     0.727866666667    -0.211024   
C1       C      0.441033333333     0.041150000000     0.061200000000    -0.211024   
C1       C      0.441033333333     0.041150000000     0.394533333333    -0.211024   
C1       C      0.441033333333     0.041150000000     0.727866666667    -0.211024   
C1       C      0.441033333333     0.541150000000     0.061200000000    -0.211024   
C1       C      0.441033333333     0.541150000000     0.394533333333    -0.211024   
C1       C      0.441033333333     0.541150000000     0.727866666667    -0.211024   
C1       C      0.774366666667     0.041150000000     0.061200000000    -0.211024   
C1       C      0.774366666667     0.041150000000     0.394533333333    -0.211024   
C1       C      0.774366666667     0.041150000000     0.727866666667    -0.211024   
C1       C      0.774366666667     0.541150000000     0.061200000000    -0.211024   
C1       C      0.774366666667     0.541150000000     0.394533333333    -0.211024   
C1       C      0.774366666667     0.541150000000     0.727866666667    -0.211024   
C2       C      0.219366666667     0.274800000000     0.333100000000     0.395395   
C2       C      0.219366666667     0.274800000000     0.666433333333     0.395395   
C2       C      0.219366666667     0.274800000000     0.999766666667     0.395395   
C2       C      0.219366666667     0.774800000000     0.333100000000     0.395395   
C2       C      0.219366666667     0.774800000000     0.666433333333     0.395395   
C2       C      0.219366666667     0.774800000000     0.999766666667     0.395395   
C2       C      0.552700000000     0.274800000000     0.333100000000     0.395395   
C2       C      0.552700000000     0.274800000000     0.666433333333     0.395395   
C2       C      0.552700000000     0.274800000000     0.999766666667     0.395395   
C2       C      0.552700000000     0.774800000000     0.333100000000     0.395395   
C2       C      0.552700000000     0.774800000000     0.666433333333     0.395395   
C2       C      0.552700000000     0.774800000000     0.999766666667     0.395395   
C2       C      0.886033333333     0.274800000000     0.333100000000     0.395395   
C2       C      0.886033333333     0.274800000000     0.666433333333     0.395395   
C2       C      0.886033333333     0.274800000000     0.999766666667     0.395395   
C2       C      0.886033333333     0.774800000000     0.333100000000     0.395395   
C2       C      0.886033333333     0.774800000000     0.666433333333     0.395395   
C2       C      0.886033333333     0.774800000000     0.999766666667     0.395395   
C3       C      0.205466666667     0.312000000000     0.326466666667     0.190182   
C3       C      0.205466666667     0.312000000000     0.659800000000     0.190182   
C3       C      0.205466666667     0.312000000000     0.993133333333     0.190182   
C3       C      0.205466666667     0.812000000000     0.326466666667     0.190182   
C3       C      0.205466666667     0.812000000000     0.659800000000     0.190182   
C3       C      0.205466666667     0.812000000000     0.993133333333     0.190182   
C3       C      0.538800000000     0.312000000000     0.326466666667     0.190182   
C3       C      0.538800000000     0.312000000000     0.659800000000     0.190182   
C3       C      0.538800000000     0.312000000000     0.993133333333     0.190182   
C3       C      0.538800000000     0.812000000000     0.326466666667     0.190182   
C3       C      0.538800000000     0.812000000000     0.659800000000     0.190182   
C3       C      0.538800000000     0.812000000000     0.993133333333     0.190182   
C3       C      0.872133333333     0.312000000000     0.326466666667     0.190182   
C3       C      0.872133333333     0.312000000000     0.659800000000     0.190182   
C3       C      0.872133333333     0.312000000000     0.993133333333     0.190182   
C3       C      0.872133333333     0.812000000000     0.326466666667     0.190182   
C3       C      0.872133333333     0.812000000000     0.659800000000     0.190182   
C3       C      0.872133333333     0.812000000000     0.993133333333     0.190182   
C4       C      0.058966666667     0.291150000000     0.105466666667     0.290537   
C4       C      0.058966666667     0.291150000000     0.438800000000     0.290537   
C4       C      0.058966666667     0.291150000000     0.772133333333     0.290537   
C4       C      0.058966666667     0.791150000000     0.105466666667     0.290537   
C4       C      0.058966666667     0.791150000000     0.438800000000     0.290537   
C4       C      0.058966666667     0.791150000000     0.772133333333     0.290537   
C4       C      0.392300000000     0.291150000000     0.105466666667     0.290537   
C4       C      0.392300000000     0.291150000000     0.438800000000     0.290537   
C4       C      0.392300000000     0.291150000000     0.772133333333     0.290537   
C4       C      0.392300000000     0.791150000000     0.105466666667     0.290537   
C4       C      0.392300000000     0.791150000000     0.438800000000     0.290537   
C4       C      0.392300000000     0.791150000000     0.772133333333     0.290537   
C4       C      0.725633333333     0.291150000000     0.105466666667     0.290537   
C4       C      0.725633333333     0.291150000000     0.438800000000     0.290537   
C4       C      0.725633333333     0.291150000000     0.772133333333     0.290537   
C4       C      0.725633333333     0.791150000000     0.105466666667     0.290537   
C4       C      0.725633333333     0.791150000000     0.438800000000     0.290537   
C4       C      0.725633333333     0.791150000000     0.772133333333     0.290537   
C5       C      0.222733333333     0.311250000000     0.096400000000     0.129807   
C5       C      0.222733333333     0.311250000000     0.429733333333     0.129807   
C5       C      0.222733333333     0.311250000000     0.763066666667     0.129807   
C5       C      0.222733333333     0.811250000000     0.096400000000     0.129807   
C5       C      0.222733333333     0.811250000000     0.429733333333     0.129807   
C5       C      0.222733333333     0.811250000000     0.763066666667     0.129807   
C5       C      0.556066666667     0.311250000000     0.096400000000     0.129807   
C5       C      0.556066666667     0.311250000000     0.429733333333     0.129807   
C5       C      0.556066666667     0.311250000000     0.763066666667     0.129807   
C5       C      0.556066666667     0.811250000000     0.096400000000     0.129807   
C5       C      0.556066666667     0.811250000000     0.429733333333     0.129807   
C5       C      0.556066666667     0.811250000000     0.763066666667     0.129807   
C5       C      0.889400000000     0.311250000000     0.096400000000     0.129807   
C5       C      0.889400000000     0.311250000000     0.429733333333     0.129807   
C5       C      0.889400000000     0.311250000000     0.763066666667     0.129807   
C5       C      0.889400000000     0.811250000000     0.096400000000     0.129807   
C5       C      0.889400000000     0.811250000000     0.429733333333     0.129807   
C5       C      0.889400000000     0.811250000000     0.763066666667     0.129807   
C6       C      0.307500000000     0.302425000000     0.100400000000    -0.207179   
C6       C      0.307500000000     0.302425000000     0.433733333333    -0.207179   
C6       C      0.307500000000     0.302425000000     0.767066666667    -0.207179   
C6       C      0.307500000000     0.802425000000     0.100400000000    -0.207179   
C6       C      0.307500000000     0.802425000000     0.433733333333    -0.207179   
C6       C      0.307500000000     0.802425000000     0.767066666667    -0.207179   
C6       C      0.640833333333     0.302425000000     0.100400000000    -0.207179   
C6       C      0.640833333333     0.302425000000     0.433733333333    -0.207179   
C6       C      0.640833333333     0.302425000000     0.767066666667    -0.207179   
C6       C      0.640833333333     0.802425000000     0.100400000000    -0.207179   
C6       C      0.640833333333     0.802425000000     0.433733333333    -0.207179   
C6       C      0.640833333333     0.802425000000     0.767066666667    -0.207179   
C6       C      0.974166666667     0.302425000000     0.100400000000    -0.207179   
C6       C      0.974166666667     0.302425000000     0.433733333333    -0.207179   
C6       C      0.974166666667     0.302425000000     0.767066666667    -0.207179   
C6       C      0.974166666667     0.802425000000     0.100400000000    -0.207179   
C6       C      0.974166666667     0.802425000000     0.433733333333    -0.207179   
C6       C      0.974166666667     0.802425000000     0.767066666667    -0.207179   
C7       C      0.185200000000     0.298285000000     0.265633333333    -0.18584    
C7       C      0.185200000000     0.298285000000     0.598966666667    -0.18584    
C7       C      0.185200000000     0.298285000000     0.932300000000    -0.18584    
C7       C      0.185200000000     0.798285000000     0.265633333333    -0.18584    
C7       C      0.185200000000     0.798285000000     0.598966666667    -0.18584    
C7       C      0.185200000000     0.798285000000     0.932300000000    -0.18584    
C7       C      0.518533333333     0.298285000000     0.265633333333    -0.18584    
C7       C      0.518533333333     0.298285000000     0.598966666667    -0.18584    
C7       C      0.518533333333     0.298285000000     0.932300000000    -0.18584    
C7       C      0.518533333333     0.798285000000     0.265633333333    -0.18584    
C7       C      0.518533333333     0.798285000000     0.598966666667    -0.18584    
C7       C      0.518533333333     0.798285000000     0.932300000000    -0.18584    
C7       C      0.851866666667     0.298285000000     0.265633333333    -0.18584    
C7       C      0.851866666667     0.298285000000     0.598966666667    -0.18584    
C7       C      0.851866666667     0.298285000000     0.932300000000    -0.18584    
C7       C      0.851866666667     0.798285000000     0.265633333333    -0.18584    
C7       C      0.851866666667     0.798285000000     0.598966666667    -0.18584    
C7       C      0.851866666667     0.798285000000     0.932300000000    -0.18584    
C8       C      0.016800000000     0.314380000000     0.092766666667    -0.002099   
C8       C      0.016800000000     0.314380000000     0.426100000000    -0.002099   
C8       C      0.016800000000     0.314380000000     0.759433333333    -0.002099   
C8       C      0.016800000000     0.814380000000     0.092766666667    -0.002099   
C8       C      0.016800000000     0.814380000000     0.426100000000    -0.002099   
C8       C      0.016800000000     0.814380000000     0.759433333333    -0.002099   
C8       C      0.350133333333     0.314380000000     0.092766666667    -0.002099   
C8       C      0.350133333333     0.314380000000     0.426100000000    -0.002099   
C8       C      0.350133333333     0.314380000000     0.759433333333    -0.002099   
C8       C      0.350133333333     0.814380000000     0.092766666667    -0.002099   
C8       C      0.350133333333     0.814380000000     0.426100000000    -0.002099   
C8       C      0.350133333333     0.814380000000     0.759433333333    -0.002099   
C8       C      0.683466666667     0.314380000000     0.092766666667    -0.002099   
C8       C      0.683466666667     0.314380000000     0.426100000000    -0.002099   
C8       C      0.683466666667     0.314380000000     0.759433333333    -0.002099   
C8       C      0.683466666667     0.814380000000     0.092766666667    -0.002099   
C8       C      0.683466666667     0.814380000000     0.426100000000    -0.002099   
C8       C      0.683466666667     0.814380000000     0.759433333333    -0.002099   
C9       C      0.269133333333     0.324650000000     0.089633333333     0.146144   
C9       C      0.269133333333     0.324650000000     0.422966666667     0.146144   
C9       C      0.269133333333     0.324650000000     0.756300000000     0.146144   
C9       C      0.269133333333     0.824650000000     0.089633333333     0.146144   
C9       C      0.269133333333     0.824650000000     0.422966666667     0.146144   
C9       C      0.269133333333     0.824650000000     0.756300000000     0.146144   
C9       C      0.602466666667     0.324650000000     0.089633333333     0.146144   
C9       C      0.602466666667     0.324650000000     0.422966666667     0.146144   
C9       C      0.602466666667     0.324650000000     0.756300000000     0.146144   
C9       C      0.602466666667     0.824650000000     0.089633333333     0.146144   
C9       C      0.602466666667     0.824650000000     0.422966666667     0.146144   
C9       C      0.602466666667     0.824650000000     0.756300000000     0.146144   
C9       C      0.935800000000     0.324650000000     0.089633333333     0.146144   
C9       C      0.935800000000     0.324650000000     0.422966666667     0.146144   
C9       C      0.935800000000     0.324650000000     0.756300000000     0.146144   
C9       C      0.935800000000     0.824650000000     0.089633333333     0.146144   
C9       C      0.935800000000     0.824650000000     0.422966666667     0.146144   
C9       C      0.935800000000     0.824650000000     0.756300000000     0.146144   
C10      C      0.021233333333     0.348860000000     0.074133333333     0.01021    
C10      C      0.021233333333     0.348860000000     0.407466666667     0.01021    
C10      C      0.021233333333     0.348860000000     0.740800000000     0.01021    
C10      C      0.021233333333     0.848860000000     0.074133333333     0.01021    
C10      C      0.021233333333     0.848860000000     0.407466666667     0.01021    
C10      C      0.021233333333     0.848860000000     0.740800000000     0.01021    
C10      C      0.354566666667     0.348860000000     0.074133333333     0.01021    
C10      C      0.354566666667     0.348860000000     0.407466666667     0.01021    
C10      C      0.354566666667     0.348860000000     0.740800000000     0.01021    
C10      C      0.354566666667     0.848860000000     0.074133333333     0.01021    
C10      C      0.354566666667     0.848860000000     0.407466666667     0.01021    
C10      C      0.354566666667     0.848860000000     0.740800000000     0.01021    
C10      C      0.687900000000     0.348860000000     0.074133333333     0.01021    
C10      C      0.687900000000     0.348860000000     0.407466666667     0.01021    
C10      C      0.687900000000     0.348860000000     0.740800000000     0.01021    
C10      C      0.687900000000     0.848860000000     0.074133333333     0.01021    
C10      C      0.687900000000     0.848860000000     0.407466666667     0.01021    
C10      C      0.687900000000     0.848860000000     0.740800000000     0.01021    
C11      C      0.170400000000     0.309060000000     0.226500000000    -0.11331    
C11      C      0.170400000000     0.309060000000     0.559833333333    -0.11331    
C11      C      0.170400000000     0.309060000000     0.893166666667    -0.11331    
C11      C      0.170400000000     0.809060000000     0.226500000000    -0.11331    
C11      C      0.170400000000     0.809060000000     0.559833333333    -0.11331    
C11      C      0.170400000000     0.809060000000     0.893166666667    -0.11331    
C11      C      0.503733333333     0.309060000000     0.226500000000    -0.11331    
C11      C      0.503733333333     0.309060000000     0.559833333333    -0.11331    
C11      C      0.503733333333     0.309060000000     0.893166666667    -0.11331    
C11      C      0.503733333333     0.809060000000     0.226500000000    -0.11331    
C11      C      0.503733333333     0.809060000000     0.559833333333    -0.11331    
C11      C      0.503733333333     0.809060000000     0.893166666667    -0.11331    
C11      C      0.837066666667     0.309060000000     0.226500000000    -0.11331    
C11      C      0.837066666667     0.309060000000     0.559833333333    -0.11331    
C11      C      0.837066666667     0.309060000000     0.893166666667    -0.11331    
C11      C      0.837066666667     0.809060000000     0.226500000000    -0.11331    
C11      C      0.837066666667     0.809060000000     0.559833333333    -0.11331    
C11      C      0.837066666667     0.809060000000     0.893166666667    -0.11331    
C12      C      0.273666666667     0.359925000000     0.072033333333     0.14613    
C12      C      0.273666666667     0.359925000000     0.405366666667     0.14613    
C12      C      0.273666666667     0.359925000000     0.738700000000     0.14613    
C12      C      0.273666666667     0.859925000000     0.072033333333     0.14613    
C12      C      0.273666666667     0.859925000000     0.405366666667     0.14613    
C12      C      0.273666666667     0.859925000000     0.738700000000     0.14613    
C12      C      0.607000000000     0.359925000000     0.072033333333     0.14613    
C12      C      0.607000000000     0.359925000000     0.405366666667     0.14613    
C12      C      0.607000000000     0.359925000000     0.738700000000     0.14613    
C12      C      0.607000000000     0.859925000000     0.072033333333     0.14613    
C12      C      0.607000000000     0.859925000000     0.405366666667     0.14613    
C12      C      0.607000000000     0.859925000000     0.738700000000     0.14613    
C12      C      0.940333333333     0.359925000000     0.072033333333     0.14613    
C12      C      0.940333333333     0.359925000000     0.405366666667     0.14613    
C12      C      0.940333333333     0.359925000000     0.738700000000     0.14613    
C12      C      0.940333333333     0.859925000000     0.072033333333     0.14613    
C12      C      0.940333333333     0.859925000000     0.405366666667     0.14613    
C12      C      0.940333333333     0.859925000000     0.738700000000     0.14613    
C13      C      0.145700000000     0.337475000000     0.174266666667     0.569649   
C13      C      0.145700000000     0.337475000000     0.507600000000     0.569649   
C13      C      0.145700000000     0.337475000000     0.840933333333     0.569649   
C13      C      0.145700000000     0.837475000000     0.174266666667     0.569649   
C13      C      0.145700000000     0.837475000000     0.507600000000     0.569649   
C13      C      0.145700000000     0.837475000000     0.840933333333     0.569649   
C13      C      0.479033333333     0.337475000000     0.174266666667     0.569649   
C13      C      0.479033333333     0.337475000000     0.507600000000     0.569649   
C13      C      0.479033333333     0.337475000000     0.840933333333     0.569649   
C13      C      0.479033333333     0.837475000000     0.174266666667     0.569649   
C13      C      0.479033333333     0.837475000000     0.507600000000     0.569649   
C13      C      0.479033333333     0.837475000000     0.840933333333     0.569649   
C13      C      0.812366666667     0.337475000000     0.174266666667     0.569649   
C13      C      0.812366666667     0.337475000000     0.507600000000     0.569649   
C13      C      0.812366666667     0.337475000000     0.840933333333     0.569649   
C13      C      0.812366666667     0.837475000000     0.174266666667     0.569649   
C13      C      0.812366666667     0.837475000000     0.507600000000     0.569649   
C13      C      0.812366666667     0.837475000000     0.840933333333     0.569649   
C14      C      0.316300000000     0.370955000000     0.064500000000     0.550783   
C14      C      0.316300000000     0.370955000000     0.397833333333     0.550783   
C14      C      0.316300000000     0.370955000000     0.731166666667     0.550783   
C14      C      0.316300000000     0.870955000000     0.064500000000     0.550783   
C14      C      0.316300000000     0.870955000000     0.397833333333     0.550783   
C14      C      0.316300000000     0.870955000000     0.731166666667     0.550783   
C14      C      0.649633333333     0.370955000000     0.064500000000     0.550783   
C14      C      0.649633333333     0.370955000000     0.397833333333     0.550783   
C14      C      0.649633333333     0.370955000000     0.731166666667     0.550783   
C14      C      0.649633333333     0.870955000000     0.064500000000     0.550783   
C14      C      0.649633333333     0.870955000000     0.397833333333     0.550783   
C14      C      0.649633333333     0.870955000000     0.731166666667     0.550783   
C14      C      0.982966666667     0.370955000000     0.064500000000     0.550783   
C14      C      0.982966666667     0.370955000000     0.397833333333     0.550783   
C14      C      0.982966666667     0.370955000000     0.731166666667     0.550783   
C14      C      0.982966666667     0.870955000000     0.064500000000     0.550783   
C14      C      0.982966666667     0.870955000000     0.397833333333     0.550783   
C14      C      0.982966666667     0.870955000000     0.731166666667     0.550783   
C15      C      0.293566666667     0.382300000000     0.314500000000     0.569657   
C15      C      0.293566666667     0.382300000000     0.647833333333     0.569657   
C15      C      0.293566666667     0.382300000000     0.981166666667     0.569657   
C15      C      0.293566666667     0.882300000000     0.314500000000     0.569657   
C15      C      0.293566666667     0.882300000000     0.647833333333     0.569657   
C15      C      0.293566666667     0.882300000000     0.981166666667     0.569657   
C15      C      0.626900000000     0.382300000000     0.314500000000     0.569657   
C15      C      0.626900000000     0.382300000000     0.647833333333     0.569657   
C15      C      0.626900000000     0.382300000000     0.981166666667     0.569657   
C15      C      0.626900000000     0.882300000000     0.314500000000     0.569657   
C15      C      0.626900000000     0.882300000000     0.647833333333     0.569657   
C15      C      0.626900000000     0.882300000000     0.981166666667     0.569657   
C15      C      0.960233333333     0.382300000000     0.314500000000     0.569657   
C15      C      0.960233333333     0.382300000000     0.647833333333     0.569657   
C15      C      0.960233333333     0.382300000000     0.981166666667     0.569657   
C15      C      0.960233333333     0.882300000000     0.314500000000     0.569657   
C15      C      0.960233333333     0.882300000000     0.647833333333     0.569657   
C15      C      0.960233333333     0.882300000000     0.981166666667     0.569657   
C16      C      0.126900000000     0.367700000000     0.147833333333     0.56967    
C16      C      0.126900000000     0.367700000000     0.481166666667     0.56967    
C16      C      0.126900000000     0.367700000000     0.814500000000     0.56967    
C16      C      0.126900000000     0.867700000000     0.147833333333     0.56967    
C16      C      0.126900000000     0.867700000000     0.481166666667     0.56967    
C16      C      0.126900000000     0.867700000000     0.814500000000     0.56967    
C16      C      0.460233333333     0.367700000000     0.147833333333     0.56967    
C16      C      0.460233333333     0.367700000000     0.481166666667     0.56967    
C16      C      0.460233333333     0.367700000000     0.814500000000     0.56967    
C16      C      0.460233333333     0.867700000000     0.147833333333     0.56967    
C16      C      0.460233333333     0.867700000000     0.481166666667     0.56967    
C16      C      0.460233333333     0.867700000000     0.814500000000     0.56967    
C16      C      0.793566666667     0.367700000000     0.147833333333     0.56967    
C16      C      0.793566666667     0.367700000000     0.481166666667     0.56967    
C16      C      0.793566666667     0.367700000000     0.814500000000     0.56967    
C16      C      0.793566666667     0.867700000000     0.147833333333     0.56967    
C16      C      0.793566666667     0.867700000000     0.481166666667     0.56967    
C16      C      0.793566666667     0.867700000000     0.814500000000     0.56967    
C17      C      0.149633333333     0.379045000000     0.231166666667    -0.113286   
C17      C      0.149633333333     0.379045000000     0.564500000000    -0.113286   
C17      C      0.149633333333     0.379045000000     0.897833333333    -0.113286   
C17      C      0.149633333333     0.879045000000     0.231166666667    -0.113286   
C17      C      0.149633333333     0.879045000000     0.564500000000    -0.113286   
C17      C      0.149633333333     0.879045000000     0.897833333333    -0.113286   
C17      C      0.482966666667     0.379045000000     0.231166666667    -0.113286   
C17      C      0.482966666667     0.379045000000     0.564500000000    -0.113286   
C17      C      0.482966666667     0.379045000000     0.897833333333    -0.113286   
C17      C      0.482966666667     0.879045000000     0.231166666667    -0.113286   
C17      C      0.482966666667     0.879045000000     0.564500000000    -0.113286   
C17      C      0.482966666667     0.879045000000     0.897833333333    -0.113286   
C17      C      0.816300000000     0.379045000000     0.231166666667    -0.113286   
C17      C      0.816300000000     0.379045000000     0.564500000000    -0.113286   
C17      C      0.816300000000     0.379045000000     0.897833333333    -0.113286   
C17      C      0.816300000000     0.879045000000     0.231166666667    -0.113286   
C17      C      0.816300000000     0.879045000000     0.564500000000    -0.113286   
C17      C      0.816300000000     0.879045000000     0.897833333333    -0.113286   
C18      C      0.107000000000     0.390075000000     0.238700000000     0.14612    
C18      C      0.107000000000     0.390075000000     0.572033333333     0.14612    
C18      C      0.107000000000     0.390075000000     0.905366666667     0.14612    
C18      C      0.107000000000     0.890075000000     0.238700000000     0.14612    
C18      C      0.107000000000     0.890075000000     0.572033333333     0.14612    
C18      C      0.107000000000     0.890075000000     0.905366666667     0.14612    
C18      C      0.440333333333     0.390075000000     0.238700000000     0.14612    
C18      C      0.440333333333     0.390075000000     0.572033333333     0.14612    
C18      C      0.440333333333     0.390075000000     0.905366666667     0.14612    
C18      C      0.440333333333     0.890075000000     0.238700000000     0.14612    
C18      C      0.440333333333     0.890075000000     0.572033333333     0.14612    
C18      C      0.440333333333     0.890075000000     0.905366666667     0.14612    
C18      C      0.773666666667     0.390075000000     0.238700000000     0.14612    
C18      C      0.773666666667     0.390075000000     0.572033333333     0.14612    
C18      C      0.773666666667     0.390075000000     0.905366666667     0.14612    
C18      C      0.773666666667     0.890075000000     0.238700000000     0.14612    
C18      C      0.773666666667     0.890075000000     0.572033333333     0.14612    
C18      C      0.773666666667     0.890075000000     0.905366666667     0.14612    
C19      C      0.312366666667     0.412525000000     0.007600000000     0.010232   
C19      C      0.312366666667     0.412525000000     0.340933333333     0.010232   
C19      C      0.312366666667     0.412525000000     0.674266666667     0.010232   
C19      C      0.312366666667     0.912525000000     0.007600000000     0.010232   
C19      C      0.312366666667     0.912525000000     0.340933333333     0.010232   
C19      C      0.312366666667     0.912525000000     0.674266666667     0.010232   
C19      C      0.645700000000     0.412525000000     0.007600000000     0.010232   
C19      C      0.645700000000     0.412525000000     0.340933333333     0.010232   
C19      C      0.645700000000     0.412525000000     0.674266666667     0.010232   
C19      C      0.645700000000     0.912525000000     0.007600000000     0.010232   
C19      C      0.645700000000     0.912525000000     0.340933333333     0.010232   
C19      C      0.645700000000     0.912525000000     0.674266666667     0.010232   
C19      C      0.979033333333     0.412525000000     0.007600000000     0.010232   
C19      C      0.979033333333     0.412525000000     0.340933333333     0.010232   
C19      C      0.979033333333     0.412525000000     0.674266666667     0.010232   
C19      C      0.979033333333     0.912525000000     0.007600000000     0.010232   
C19      C      0.979033333333     0.912525000000     0.340933333333     0.010232   
C19      C      0.979033333333     0.912525000000     0.674266666667     0.010232   
C20      C      0.003733333333     0.440940000000     0.059833333333    -0.002072   
C20      C      0.003733333333     0.440940000000     0.393166666667    -0.002072   
C20      C      0.003733333333     0.440940000000     0.726500000000    -0.002072   
C20      C      0.003733333333     0.940940000000     0.059833333333    -0.002072   
C20      C      0.003733333333     0.940940000000     0.393166666667    -0.002072   
C20      C      0.003733333333     0.940940000000     0.726500000000    -0.002072   
C20      C      0.337066666667     0.440940000000     0.059833333333    -0.002072   
C20      C      0.337066666667     0.440940000000     0.393166666667    -0.002072   
C20      C      0.337066666667     0.440940000000     0.726500000000    -0.002072   
C20      C      0.337066666667     0.940940000000     0.059833333333    -0.002072   
C20      C      0.337066666667     0.940940000000     0.393166666667    -0.002072   
C20      C      0.337066666667     0.940940000000     0.726500000000    -0.002072   
C20      C      0.670400000000     0.440940000000     0.059833333333    -0.002072   
C20      C      0.670400000000     0.440940000000     0.393166666667    -0.002072   
C20      C      0.670400000000     0.440940000000     0.726500000000    -0.002072   
C20      C      0.670400000000     0.940940000000     0.059833333333    -0.002072   
C20      C      0.670400000000     0.940940000000     0.393166666667    -0.002072   
C20      C      0.670400000000     0.940940000000     0.726500000000    -0.002072   
C21      C      0.018533333333     0.451715000000     0.098966666667    -0.207154   
C21      C      0.018533333333     0.451715000000     0.432300000000    -0.207154   
C21      C      0.018533333333     0.451715000000     0.765633333333    -0.207154   
C21      C      0.018533333333     0.951715000000     0.098966666667    -0.207154   
C21      C      0.018533333333     0.951715000000     0.432300000000    -0.207154   
C21      C      0.018533333333     0.951715000000     0.765633333333    -0.207154   
C21      C      0.351866666667     0.451715000000     0.098966666667    -0.207154   
C21      C      0.351866666667     0.451715000000     0.432300000000    -0.207154   
C21      C      0.351866666667     0.451715000000     0.765633333333    -0.207154   
C21      C      0.351866666667     0.951715000000     0.098966666667    -0.207154   
C21      C      0.351866666667     0.951715000000     0.432300000000    -0.207154   
C21      C      0.351866666667     0.951715000000     0.765633333333    -0.207154   
C21      C      0.685200000000     0.451715000000     0.098966666667    -0.207154   
C21      C      0.685200000000     0.451715000000     0.432300000000    -0.207154   
C21      C      0.685200000000     0.451715000000     0.765633333333    -0.207154   
C21      C      0.685200000000     0.951715000000     0.098966666667    -0.207154   
C21      C      0.685200000000     0.951715000000     0.432300000000    -0.207154   
C21      C      0.685200000000     0.951715000000     0.765633333333    -0.207154   
C22      C      0.038800000000     0.438000000000     0.159800000000    -0.185906   
C22      C      0.038800000000     0.438000000000     0.493133333333    -0.185906   
C22      C      0.038800000000     0.438000000000     0.826466666667    -0.185906   
C22      C      0.038800000000     0.938000000000     0.159800000000    -0.185906   
C22      C      0.038800000000     0.938000000000     0.493133333333    -0.185906   
C22      C      0.038800000000     0.938000000000     0.826466666667    -0.185906   
C22      C      0.372133333333     0.438000000000     0.159800000000    -0.185906   
C22      C      0.372133333333     0.438000000000     0.493133333333    -0.185906   
C22      C      0.372133333333     0.438000000000     0.826466666667    -0.185906   
C22      C      0.372133333333     0.938000000000     0.159800000000    -0.185906   
C22      C      0.372133333333     0.938000000000     0.493133333333    -0.185906   
C22      C      0.372133333333     0.938000000000     0.826466666667    -0.185906   
C22      C      0.705466666667     0.438000000000     0.159800000000    -0.185906   
C22      C      0.705466666667     0.438000000000     0.493133333333    -0.185906   
C22      C      0.705466666667     0.438000000000     0.826466666667    -0.185906   
C22      C      0.705466666667     0.938000000000     0.159800000000    -0.185906   
C22      C      0.705466666667     0.938000000000     0.493133333333    -0.185906   
C22      C      0.705466666667     0.938000000000     0.826466666667    -0.185906   
C23      C      0.187900000000     0.401140000000     0.240800000000    -0.210983   
C23      C      0.187900000000     0.401140000000     0.574133333333    -0.210983   
C23      C      0.187900000000     0.401140000000     0.907466666667    -0.210983   
C23      C      0.187900000000     0.901140000000     0.240800000000    -0.210983   
C23      C      0.187900000000     0.901140000000     0.574133333333    -0.210983   
C23      C      0.187900000000     0.901140000000     0.907466666667    -0.210983   
C23      C      0.521233333333     0.401140000000     0.240800000000    -0.210983   
C23      C      0.521233333333     0.401140000000     0.574133333333    -0.210983   
C23      C      0.521233333333     0.401140000000     0.907466666667    -0.210983   
C23      C      0.521233333333     0.901140000000     0.240800000000    -0.210983   
C23      C      0.521233333333     0.901140000000     0.574133333333    -0.210983   
C23      C      0.521233333333     0.901140000000     0.907466666667    -0.210983   
C23      C      0.854566666667     0.401140000000     0.240800000000    -0.210983   
C23      C      0.854566666667     0.401140000000     0.574133333333    -0.210983   
C23      C      0.854566666667     0.401140000000     0.907466666667    -0.210983   
C23      C      0.854566666667     0.901140000000     0.240800000000    -0.210983   
C23      C      0.854566666667     0.901140000000     0.574133333333    -0.210983   
C23      C      0.854566666667     0.901140000000     0.907466666667    -0.210983   
C24      C      0.052700000000     0.475200000000     0.166433333333     0.129743   
C24      C      0.052700000000     0.475200000000     0.499766666667     0.129743   
C24      C      0.052700000000     0.475200000000     0.833100000000     0.129743   
C24      C      0.052700000000     0.975200000000     0.166433333333     0.129743   
C24      C      0.052700000000     0.975200000000     0.499766666667     0.129743   
C24      C      0.052700000000     0.975200000000     0.833100000000     0.129743   
C24      C      0.386033333333     0.475200000000     0.166433333333     0.129743   
C24      C      0.386033333333     0.475200000000     0.499766666667     0.129743   
C24      C      0.386033333333     0.475200000000     0.833100000000     0.129743   
C24      C      0.386033333333     0.975200000000     0.166433333333     0.129743   
C24      C      0.386033333333     0.975200000000     0.499766666667     0.129743   
C24      C      0.386033333333     0.975200000000     0.833100000000     0.129743   
C24      C      0.719366666667     0.475200000000     0.166433333333     0.129743   
C24      C      0.719366666667     0.475200000000     0.499766666667     0.129743   
C24      C      0.719366666667     0.475200000000     0.833100000000     0.129743   
C24      C      0.719366666667     0.975200000000     0.166433333333     0.129743   
C24      C      0.719366666667     0.975200000000     0.499766666667     0.129743   
C24      C      0.719366666667     0.975200000000     0.833100000000     0.129743   
C25      C      0.102466666667     0.425350000000     0.256300000000     0.178357   
C25      C      0.102466666667     0.425350000000     0.589633333333     0.178357   
C25      C      0.102466666667     0.425350000000     0.922966666667     0.178357   
C25      C      0.102466666667     0.925350000000     0.256300000000     0.178357   
C25      C      0.102466666667     0.925350000000     0.589633333333     0.178357   
C25      C      0.102466666667     0.925350000000     0.922966666667     0.178357   
C25      C      0.435800000000     0.425350000000     0.256300000000     0.178357   
C25      C      0.435800000000     0.425350000000     0.589633333333     0.178357   
C25      C      0.435800000000     0.425350000000     0.922966666667     0.178357   
C25      C      0.435800000000     0.925350000000     0.256300000000     0.178357   
C25      C      0.435800000000     0.925350000000     0.589633333333     0.178357   
C25      C      0.435800000000     0.925350000000     0.922966666667     0.178357   
C25      C      0.769133333333     0.425350000000     0.256300000000     0.178357   
C25      C      0.769133333333     0.425350000000     0.589633333333     0.178357   
C25      C      0.769133333333     0.425350000000     0.922966666667     0.178357   
C25      C      0.769133333333     0.925350000000     0.256300000000     0.178357   
C25      C      0.769133333333     0.925350000000     0.589633333333     0.178357   
C25      C      0.769133333333     0.925350000000     0.922966666667     0.178357   
C26      C      0.046433333333     0.000550000000     0.136733333333    -0.552183   
C26      C      0.046433333333     0.000550000000     0.470066666667    -0.552183   
C26      C      0.046433333333     0.000550000000     0.803400000000    -0.552183   
C26      C      0.046433333333     0.500550000000     0.136733333333    -0.552183   
C26      C      0.046433333333     0.500550000000     0.470066666667    -0.552183   
C26      C      0.046433333333     0.500550000000     0.803400000000    -0.552183   
C26      C      0.379766666667     0.000550000000     0.136733333333    -0.552183   
C26      C      0.379766666667     0.000550000000     0.470066666667    -0.552183   
C26      C      0.379766666667     0.000550000000     0.803400000000    -0.552183   
C26      C      0.379766666667     0.500550000000     0.136733333333    -0.552183   
C26      C      0.379766666667     0.500550000000     0.470066666667    -0.552183   
C26      C      0.379766666667     0.500550000000     0.803400000000    -0.552183   
C26      C      0.713100000000     0.000550000000     0.136733333333    -0.552183   
C26      C      0.713100000000     0.000550000000     0.470066666667    -0.552183   
C26      C      0.713100000000     0.000550000000     0.803400000000    -0.552183   
C26      C      0.713100000000     0.500550000000     0.136733333333    -0.552183   
C26      C      0.713100000000     0.500550000000     0.470066666667    -0.552183   
C26      C      0.713100000000     0.500550000000     0.803400000000    -0.552183   
C27      C      0.183466666667     0.435620000000     0.259433333333     0.290505   
C27      C      0.183466666667     0.435620000000     0.592766666667     0.290505   
C27      C      0.183466666667     0.435620000000     0.926100000000     0.290505   
C27      C      0.183466666667     0.935620000000     0.259433333333     0.290505   
C27      C      0.183466666667     0.935620000000     0.592766666667     0.290505   
C27      C      0.183466666667     0.935620000000     0.926100000000     0.290505   
C27      C      0.516800000000     0.435620000000     0.259433333333     0.290505   
C27      C      0.516800000000     0.435620000000     0.592766666667     0.290505   
C27      C      0.516800000000     0.435620000000     0.926100000000     0.290505   
C27      C      0.516800000000     0.935620000000     0.259433333333     0.290505   
C27      C      0.516800000000     0.935620000000     0.592766666667     0.290505   
C27      C      0.516800000000     0.935620000000     0.926100000000     0.290505   
C27      C      0.850133333333     0.435620000000     0.259433333333     0.290505   
C27      C      0.850133333333     0.435620000000     0.592766666667     0.290505   
C27      C      0.850133333333     0.435620000000     0.926100000000     0.290505   
C27      C      0.850133333333     0.935620000000     0.259433333333     0.290505   
C27      C      0.850133333333     0.935620000000     0.592766666667     0.290505   
C27      C      0.850133333333     0.935620000000     0.926100000000     0.290505   
C28      C      0.140833333333     0.447575000000     0.267066666667     0.190179   
C28      C      0.140833333333     0.447575000000     0.600400000000     0.190179   
C28      C      0.140833333333     0.447575000000     0.933733333333     0.190179   
C28      C      0.140833333333     0.947575000000     0.267066666667     0.190179   
C28      C      0.140833333333     0.947575000000     0.600400000000     0.190179   
C28      C      0.140833333333     0.947575000000     0.933733333333     0.190179   
C28      C      0.474166666667     0.447575000000     0.267066666667     0.190179   
C28      C      0.474166666667     0.447575000000     0.600400000000     0.190179   
C28      C      0.474166666667     0.447575000000     0.933733333333     0.190179   
C28      C      0.474166666667     0.947575000000     0.267066666667     0.190179   
C28      C      0.474166666667     0.947575000000     0.600400000000     0.190179   
C28      C      0.474166666667     0.947575000000     0.933733333333     0.190179   
C28      C      0.807500000000     0.447575000000     0.267066666667     0.190179   
C28      C      0.807500000000     0.447575000000     0.600400000000     0.190179   
C28      C      0.807500000000     0.447575000000     0.933733333333     0.190179   
C28      C      0.807500000000     0.947575000000     0.267066666667     0.190179   
C28      C      0.807500000000     0.947575000000     0.600400000000     0.190179   
C28      C      0.807500000000     0.947575000000     0.933733333333     0.190179   
C29      C      0.213100000000     0.249450000000     0.303400000000     0.395383   
C29      C      0.213100000000     0.249450000000     0.636733333333     0.395383   
C29      C      0.213100000000     0.249450000000     0.970066666667     0.395383   
C29      C      0.213100000000     0.749450000000     0.303400000000     0.395383   
C29      C      0.213100000000     0.749450000000     0.636733333333     0.395383   
C29      C      0.213100000000     0.749450000000     0.970066666667     0.395383   
C29      C      0.546433333333     0.249450000000     0.303400000000     0.395383   
C29      C      0.546433333333     0.249450000000     0.636733333333     0.395383   
C29      C      0.546433333333     0.249450000000     0.970066666667     0.395383   
C29      C      0.546433333333     0.749450000000     0.303400000000     0.395383   
C29      C      0.546433333333     0.749450000000     0.636733333333     0.395383   
C29      C      0.546433333333     0.749450000000     0.970066666667     0.395383   
C29      C      0.879766666667     0.249450000000     0.303400000000     0.395383   
C29      C      0.879766666667     0.249450000000     0.636733333333     0.395383   
C29      C      0.879766666667     0.249450000000     0.970066666667     0.395383   
C29      C      0.879766666667     0.749450000000     0.303400000000     0.395383   
C29      C      0.879766666667     0.749450000000     0.636733333333     0.395383   
C29      C      0.879766666667     0.749450000000     0.970066666667     0.395383   
C30      C      0.056066666667     0.438750000000     0.263066666667     0.39537    
C30      C      0.056066666667     0.438750000000     0.596400000000     0.39537    
C30      C      0.056066666667     0.438750000000     0.929733333333     0.39537    
C30      C      0.056066666667     0.938750000000     0.263066666667     0.39537    
C30      C      0.056066666667     0.938750000000     0.596400000000     0.39537    
C30      C      0.056066666667     0.938750000000     0.929733333333     0.39537    
C30      C      0.389400000000     0.438750000000     0.263066666667     0.39537    
C30      C      0.389400000000     0.438750000000     0.596400000000     0.39537    
C30      C      0.389400000000     0.438750000000     0.929733333333     0.39537    
C30      C      0.389400000000     0.938750000000     0.263066666667     0.39537    
C30      C      0.389400000000     0.938750000000     0.596400000000     0.39537    
C30      C      0.389400000000     0.938750000000     0.929733333333     0.39537    
C30      C      0.722733333333     0.438750000000     0.263066666667     0.39537    
C30      C      0.722733333333     0.438750000000     0.596400000000     0.39537    
C30      C      0.722733333333     0.438750000000     0.929733333333     0.39537    
C30      C      0.722733333333     0.938750000000     0.263066666667     0.39537    
C30      C      0.722733333333     0.938750000000     0.596400000000     0.39537    
C30      C      0.722733333333     0.938750000000     0.929733333333     0.39537    
C31      C      0.225633333333     0.458850000000     0.272133333333     0.190157   
C31      C      0.225633333333     0.458850000000     0.605466666667     0.190157   
C31      C      0.225633333333     0.458850000000     0.938800000000     0.190157   
C31      C      0.225633333333     0.958850000000     0.272133333333     0.190157   
C31      C      0.225633333333     0.958850000000     0.605466666667     0.190157   
C31      C      0.225633333333     0.958850000000     0.938800000000     0.190157   
C31      C      0.558966666667     0.458850000000     0.272133333333     0.190157   
C31      C      0.558966666667     0.458850000000     0.605466666667     0.190157   
C31      C      0.558966666667     0.458850000000     0.938800000000     0.190157   
C31      C      0.558966666667     0.958850000000     0.272133333333     0.190157   
C31      C      0.558966666667     0.958850000000     0.605466666667     0.190157   
C31      C      0.558966666667     0.958850000000     0.938800000000     0.190157   
C31      C      0.892300000000     0.458850000000     0.272133333333     0.190157   
C31      C      0.892300000000     0.458850000000     0.605466666667     0.190157   
C31      C      0.892300000000     0.458850000000     0.938800000000     0.190157   
C31      C      0.892300000000     0.958850000000     0.272133333333     0.190157   
C31      C      0.892300000000     0.958850000000     0.605466666667     0.190157   
C31      C      0.892300000000     0.958850000000     0.938800000000     0.190157   
C32      C      0.110600000000     0.188750000000     0.236933333333     0.29051    
C32      C      0.110600000000     0.188750000000     0.570266666667     0.29051    
C32      C      0.110600000000     0.188750000000     0.903600000000     0.29051    
C32      C      0.110600000000     0.688750000000     0.236933333333     0.29051    
C32      C      0.110600000000     0.688750000000     0.570266666667     0.29051    
C32      C      0.110600000000     0.688750000000     0.903600000000     0.29051    
C32      C      0.443933333333     0.188750000000     0.236933333333     0.29051    
C32      C      0.443933333333     0.188750000000     0.570266666667     0.29051    
C32      C      0.443933333333     0.188750000000     0.903600000000     0.29051    
C32      C      0.443933333333     0.688750000000     0.236933333333     0.29051    
C32      C      0.443933333333     0.688750000000     0.570266666667     0.29051    
C32      C      0.443933333333     0.688750000000     0.903600000000     0.29051    
C32      C      0.777266666667     0.188750000000     0.236933333333     0.29051    
C32      C      0.777266666667     0.188750000000     0.570266666667     0.29051    
C32      C      0.777266666667     0.188750000000     0.903600000000     0.29051    
C32      C      0.777266666667     0.688750000000     0.236933333333     0.29051    
C32      C      0.777266666667     0.688750000000     0.570266666667     0.29051    
C32      C      0.777266666667     0.688750000000     0.903600000000     0.29051    
C33      C      0.277266666667     0.061250000000     0.070266666667     0.129746   
C33      C      0.277266666667     0.061250000000     0.403600000000     0.129746   
C33      C      0.277266666667     0.061250000000     0.736933333333     0.129746   
C33      C      0.277266666667     0.561250000000     0.070266666667     0.129746   
C33      C      0.277266666667     0.561250000000     0.403600000000     0.129746   
C33      C      0.277266666667     0.561250000000     0.736933333333     0.129746   
C33      C      0.610600000000     0.061250000000     0.070266666667     0.129746   
C33      C      0.610600000000     0.061250000000     0.403600000000     0.129746   
C33      C      0.610600000000     0.061250000000     0.736933333333     0.129746   
C33      C      0.610600000000     0.561250000000     0.070266666667     0.129746   
C33      C      0.610600000000     0.561250000000     0.403600000000     0.129746   
C33      C      0.610600000000     0.561250000000     0.736933333333     0.129746   
C33      C      0.943933333333     0.061250000000     0.070266666667     0.129746   
C33      C      0.943933333333     0.061250000000     0.403600000000     0.129746   
C33      C      0.943933333333     0.061250000000     0.736933333333     0.129746   
C33      C      0.943933333333     0.561250000000     0.070266666667     0.129746   
C33      C      0.943933333333     0.561250000000     0.403600000000     0.129746   
C33      C      0.943933333333     0.561250000000     0.736933333333     0.129746   
C34      C      0.192500000000     0.052425000000     0.066266666667    -0.552184   
C34      C      0.192500000000     0.052425000000     0.399600000000    -0.552184   
C34      C      0.192500000000     0.052425000000     0.732933333333    -0.552184   
C34      C      0.192500000000     0.552425000000     0.066266666667    -0.552184   
C34      C      0.192500000000     0.552425000000     0.399600000000    -0.552184   
C34      C      0.192500000000     0.552425000000     0.732933333333    -0.552184   
C34      C      0.525833333333     0.052425000000     0.066266666667    -0.552184   
C34      C      0.525833333333     0.052425000000     0.399600000000    -0.552184   
C34      C      0.525833333333     0.052425000000     0.732933333333    -0.552184   
C34      C      0.525833333333     0.552425000000     0.066266666667    -0.552184   
C34      C      0.525833333333     0.552425000000     0.399600000000    -0.552184   
C34      C      0.525833333333     0.552425000000     0.732933333333    -0.552184   
C34      C      0.859166666667     0.052425000000     0.066266666667    -0.552184   
C34      C      0.859166666667     0.052425000000     0.399600000000    -0.552184   
C34      C      0.859166666667     0.052425000000     0.732933333333    -0.552184   
C34      C      0.859166666667     0.552425000000     0.066266666667    -0.552184   
C34      C      0.859166666667     0.552425000000     0.399600000000    -0.552184   
C34      C      0.859166666667     0.552425000000     0.732933333333    -0.552184   
C35      C      0.286900000000     0.499450000000     0.196600000000    -0.185883   
C35      C      0.286900000000     0.499450000000     0.529933333333    -0.185883   
C35      C      0.286900000000     0.499450000000     0.863266666667    -0.185883   
C35      C      0.286900000000     0.999450000000     0.196600000000    -0.185883   
C35      C      0.286900000000     0.999450000000     0.529933333333    -0.185883   
C35      C      0.286900000000     0.999450000000     0.863266666667    -0.185883   
C35      C      0.620233333333     0.499450000000     0.196600000000    -0.185883   
C35      C      0.620233333333     0.499450000000     0.529933333333    -0.185883   
C35      C      0.620233333333     0.499450000000     0.863266666667    -0.185883   
C35      C      0.620233333333     0.999450000000     0.196600000000    -0.185883   
C35      C      0.620233333333     0.999450000000     0.529933333333    -0.185883   
C35      C      0.620233333333     0.999450000000     0.863266666667    -0.185883   
C35      C      0.953566666667     0.499450000000     0.196600000000    -0.185883   
C35      C      0.953566666667     0.499450000000     0.529933333333    -0.185883   
C35      C      0.953566666667     0.499450000000     0.863266666667    -0.185883   
C35      C      0.953566666667     0.999450000000     0.196600000000    -0.185883   
C35      C      0.953566666667     0.999450000000     0.529933333333    -0.185883   
C35      C      0.953566666667     0.999450000000     0.863266666667    -0.185883   
C36      C      0.149866666667     0.064380000000     0.073900000000     0.178318   
C36      C      0.149866666667     0.064380000000     0.407233333333     0.178318   
C36      C      0.149866666667     0.064380000000     0.740566666667     0.178318   
C36      C      0.149866666667     0.564380000000     0.073900000000     0.178318   
C36      C      0.149866666667     0.564380000000     0.407233333333     0.178318   
C36      C      0.149866666667     0.564380000000     0.740566666667     0.178318   
C36      C      0.483200000000     0.064380000000     0.073900000000     0.178318   
C36      C      0.483200000000     0.064380000000     0.407233333333     0.178318   
C36      C      0.483200000000     0.064380000000     0.740566666667     0.178318   
C36      C      0.483200000000     0.564380000000     0.073900000000     0.178318   
C36      C      0.483200000000     0.564380000000     0.407233333333     0.178318   
C36      C      0.483200000000     0.564380000000     0.740566666667     0.178318   
C36      C      0.816533333333     0.064380000000     0.073900000000     0.178318   
C36      C      0.816533333333     0.064380000000     0.407233333333     0.178318   
C36      C      0.816533333333     0.064380000000     0.740566666667     0.178318   
C36      C      0.816533333333     0.564380000000     0.073900000000     0.178318   
C36      C      0.816533333333     0.564380000000     0.407233333333     0.178318   
C36      C      0.816533333333     0.564380000000     0.740566666667     0.178318   
C37      C      0.230866666667     0.074650000000     0.077033333333     0.146123   
C37      C      0.230866666667     0.074650000000     0.410366666667     0.146123   
C37      C      0.230866666667     0.074650000000     0.743700000000     0.146123   
C37      C      0.230866666667     0.574650000000     0.077033333333     0.146123   
C37      C      0.230866666667     0.574650000000     0.410366666667     0.146123   
C37      C      0.230866666667     0.574650000000     0.743700000000     0.146123   
C37      C      0.564200000000     0.074650000000     0.077033333333     0.146123   
C37      C      0.564200000000     0.074650000000     0.410366666667     0.146123   
C37      C      0.564200000000     0.074650000000     0.743700000000     0.146123   
C37      C      0.564200000000     0.574650000000     0.077033333333     0.146123   
C37      C      0.564200000000     0.574650000000     0.410366666667     0.146123   
C37      C      0.564200000000     0.574650000000     0.743700000000     0.146123   
C37      C      0.897533333333     0.074650000000     0.077033333333     0.146123   
C37      C      0.897533333333     0.074650000000     0.410366666667     0.146123   
C37      C      0.897533333333     0.074650000000     0.743700000000     0.146123   
C37      C      0.897533333333     0.574650000000     0.077033333333     0.146123   
C37      C      0.897533333333     0.574650000000     0.410366666667     0.146123   
C37      C      0.897533333333     0.574650000000     0.743700000000     0.146123   
C38      C      0.145433333333     0.098860000000     0.092533333333    -0.211014   
C38      C      0.145433333333     0.098860000000     0.425866666667    -0.211014   
C38      C      0.145433333333     0.098860000000     0.759200000000    -0.211014   
C38      C      0.145433333333     0.598860000000     0.092533333333    -0.211014   
C38      C      0.145433333333     0.598860000000     0.425866666667    -0.211014   
C38      C      0.145433333333     0.598860000000     0.759200000000    -0.211014   
C38      C      0.478766666667     0.098860000000     0.092533333333    -0.211014   
C38      C      0.478766666667     0.098860000000     0.425866666667    -0.211014   
C38      C      0.478766666667     0.098860000000     0.759200000000    -0.211014   
C38      C      0.478766666667     0.598860000000     0.092533333333    -0.211014   
C38      C      0.478766666667     0.598860000000     0.425866666667    -0.211014   
C38      C      0.478766666667     0.598860000000     0.759200000000    -0.211014   
C38      C      0.812100000000     0.098860000000     0.092533333333    -0.211014   
C38      C      0.812100000000     0.098860000000     0.425866666667    -0.211014   
C38      C      0.812100000000     0.098860000000     0.759200000000    -0.211014   
C38      C      0.812100000000     0.598860000000     0.092533333333    -0.211014   
C38      C      0.812100000000     0.598860000000     0.425866666667    -0.211014   
C38      C      0.812100000000     0.598860000000     0.759200000000    -0.211014   
C39      C      0.280633333333     0.024800000000     0.166900000000    -0.207174   
C39      C      0.280633333333     0.024800000000     0.500233333333    -0.207174   
C39      C      0.280633333333     0.024800000000     0.833566666667    -0.207174   
C39      C      0.280633333333     0.524800000000     0.166900000000    -0.207174   
C39      C      0.280633333333     0.524800000000     0.500233333333    -0.207174   
C39      C      0.280633333333     0.524800000000     0.833566666667    -0.207174   
C39      C      0.613966666667     0.024800000000     0.166900000000    -0.207174   
C39      C      0.613966666667     0.024800000000     0.500233333333    -0.207174   
C39      C      0.613966666667     0.024800000000     0.833566666667    -0.207174   
C39      C      0.613966666667     0.524800000000     0.166900000000    -0.207174   
C39      C      0.613966666667     0.524800000000     0.500233333333    -0.207174   
C39      C      0.613966666667     0.524800000000     0.833566666667    -0.207174   
C39      C      0.947300000000     0.024800000000     0.166900000000    -0.207174   
C39      C      0.947300000000     0.024800000000     0.500233333333    -0.207174   
C39      C      0.947300000000     0.024800000000     0.833566666667    -0.207174   
C39      C      0.947300000000     0.524800000000     0.166900000000    -0.207174   
C39      C      0.947300000000     0.524800000000     0.500233333333    -0.207174   
C39      C      0.947300000000     0.524800000000     0.833566666667    -0.207174   
C40      C      0.226333333333     0.109925000000     0.094633333333    -0.002085   
C40      C      0.226333333333     0.109925000000     0.427966666667    -0.002085   
C40      C      0.226333333333     0.109925000000     0.761300000000    -0.002085   
C40      C      0.226333333333     0.609925000000     0.094633333333    -0.002085   
C40      C      0.226333333333     0.609925000000     0.427966666667    -0.002085   
C40      C      0.226333333333     0.609925000000     0.761300000000    -0.002085   
C40      C      0.559666666667     0.109925000000     0.094633333333    -0.002085   
C40      C      0.559666666667     0.109925000000     0.427966666667    -0.002085   
C40      C      0.559666666667     0.109925000000     0.761300000000    -0.002085   
C40      C      0.559666666667     0.609925000000     0.094633333333    -0.002085   
C40      C      0.559666666667     0.609925000000     0.427966666667    -0.002085   
C40      C      0.559666666667     0.609925000000     0.761300000000    -0.002085   
C40      C      0.893000000000     0.109925000000     0.094633333333    -0.002085   
C40      C      0.893000000000     0.109925000000     0.427966666667    -0.002085   
C40      C      0.893000000000     0.109925000000     0.761300000000    -0.002085   
C40      C      0.893000000000     0.609925000000     0.094633333333    -0.002085   
C40      C      0.893000000000     0.609925000000     0.427966666667    -0.002085   
C40      C      0.893000000000     0.609925000000     0.761300000000    -0.002085   
C41      C      0.294533333333     0.062000000000     0.173533333333     0.010218   
C41      C      0.294533333333     0.062000000000     0.506866666667     0.010218   
C41      C      0.294533333333     0.062000000000     0.840200000000     0.010218   
C41      C      0.294533333333     0.562000000000     0.173533333333     0.010218   
C41      C      0.294533333333     0.562000000000     0.506866666667     0.010218   
C41      C      0.294533333333     0.562000000000     0.840200000000     0.010218   
C41      C      0.627866666667     0.062000000000     0.173533333333     0.010218   
C41      C      0.627866666667     0.062000000000     0.506866666667     0.010218   
C41      C      0.627866666667     0.062000000000     0.840200000000     0.010218   
C41      C      0.627866666667     0.562000000000     0.173533333333     0.010218   
C41      C      0.627866666667     0.562000000000     0.506866666667     0.010218   
C41      C      0.627866666667     0.562000000000     0.840200000000     0.010218   
C41      C      0.961200000000     0.062000000000     0.173533333333     0.010218   
C41      C      0.961200000000     0.062000000000     0.506866666667     0.010218   
C41      C      0.961200000000     0.062000000000     0.840200000000     0.010218   
C41      C      0.961200000000     0.562000000000     0.173533333333     0.010218   
C41      C      0.961200000000     0.562000000000     0.506866666667     0.010218   
C41      C      0.961200000000     0.562000000000     0.840200000000     0.010218   
C42      C      0.183700000000     0.120955000000     0.102166666667    -0.113297   
C42      C      0.183700000000     0.120955000000     0.435500000000    -0.113297   
C42      C      0.183700000000     0.120955000000     0.768833333333    -0.113297   
C42      C      0.183700000000     0.620955000000     0.102166666667    -0.113297   
C42      C      0.183700000000     0.620955000000     0.435500000000    -0.113297   
C42      C      0.183700000000     0.620955000000     0.768833333333    -0.113297   
C42      C      0.517033333333     0.120955000000     0.102166666667    -0.113297   
C42      C      0.517033333333     0.120955000000     0.435500000000    -0.113297   
C42      C      0.517033333333     0.120955000000     0.768833333333    -0.113297   
C42      C      0.517033333333     0.620955000000     0.102166666667    -0.113297   
C42      C      0.517033333333     0.620955000000     0.435500000000    -0.113297   
C42      C      0.517033333333     0.620955000000     0.768833333333    -0.113297   
C42      C      0.850366666667     0.120955000000     0.102166666667    -0.113297   
C42      C      0.850366666667     0.120955000000     0.435500000000    -0.113297   
C42      C      0.850366666667     0.120955000000     0.768833333333    -0.113297   
C42      C      0.850366666667     0.620955000000     0.102166666667    -0.113297   
C42      C      0.850366666667     0.620955000000     0.435500000000    -0.113297   
C42      C      0.850366666667     0.620955000000     0.768833333333    -0.113297   
C43      C      0.206433333333     0.132300000000     0.185500000000     0.550786   
C43      C      0.206433333333     0.132300000000     0.518833333333     0.550786   
C43      C      0.206433333333     0.132300000000     0.852166666667     0.550786   
C43      C      0.206433333333     0.632300000000     0.185500000000     0.550786   
C43      C      0.206433333333     0.632300000000     0.518833333333     0.550786   
C43      C      0.206433333333     0.632300000000     0.852166666667     0.550786   
C43      C      0.539766666667     0.132300000000     0.185500000000     0.550786   
C43      C      0.539766666667     0.132300000000     0.518833333333     0.550786   
C43      C      0.539766666667     0.132300000000     0.852166666667     0.550786   
C43      C      0.539766666667     0.632300000000     0.185500000000     0.550786   
C43      C      0.539766666667     0.632300000000     0.518833333333     0.550786   
C43      C      0.539766666667     0.632300000000     0.852166666667     0.550786   
C43      C      0.873100000000     0.132300000000     0.185500000000     0.550786   
C43      C      0.873100000000     0.132300000000     0.518833333333     0.550786   
C43      C      0.873100000000     0.132300000000     0.852166666667     0.550786   
C43      C      0.873100000000     0.632300000000     0.185500000000     0.550786   
C43      C      0.873100000000     0.632300000000     0.518833333333     0.550786   
C43      C      0.873100000000     0.632300000000     0.852166666667     0.550786   
C44      C      0.314800000000     0.048285000000     0.234366666667     0.798219   
C44      C      0.314800000000     0.048285000000     0.567700000000     0.798219   
C44      C      0.314800000000     0.048285000000     0.901033333333     0.798219   
C44      C      0.314800000000     0.548285000000     0.234366666667     0.798219   
C44      C      0.314800000000     0.548285000000     0.567700000000     0.798219   
C44      C      0.314800000000     0.548285000000     0.901033333333     0.798219   
C44      C      0.648133333333     0.048285000000     0.234366666667     0.798219   
C44      C      0.648133333333     0.048285000000     0.567700000000     0.798219   
C44      C      0.648133333333     0.048285000000     0.901033333333     0.798219   
C44      C      0.648133333333     0.548285000000     0.234366666667     0.798219   
C44      C      0.648133333333     0.548285000000     0.567700000000     0.798219   
C44      C      0.648133333333     0.548285000000     0.901033333333     0.798219   
C44      C      0.981466666667     0.048285000000     0.234366666667     0.798219   
C44      C      0.981466666667     0.048285000000     0.567700000000     0.798219   
C44      C      0.981466666667     0.048285000000     0.901033333333     0.798219   
C44      C      0.981466666667     0.548285000000     0.234366666667     0.798219   
C44      C      0.981466666667     0.548285000000     0.567700000000     0.798219   
C44      C      0.981466666667     0.548285000000     0.901033333333     0.798219   
C45      C      0.329600000000     0.059060000000     0.273500000000     0.798401   
C45      C      0.329600000000     0.059060000000     0.606833333333     0.798401   
C45      C      0.329600000000     0.059060000000     0.940166666667     0.798401   
C45      C      0.329600000000     0.559060000000     0.273500000000     0.798401   
C45      C      0.329600000000     0.559060000000     0.606833333333     0.798401   
C45      C      0.329600000000     0.559060000000     0.940166666667     0.798401   
C45      C      0.662933333333     0.059060000000     0.273500000000     0.798401   
C45      C      0.662933333333     0.059060000000     0.606833333333     0.798401   
C45      C      0.662933333333     0.059060000000     0.940166666667     0.798401   
C45      C      0.662933333333     0.559060000000     0.273500000000     0.798401   
C45      C      0.662933333333     0.559060000000     0.606833333333     0.798401   
C45      C      0.662933333333     0.559060000000     0.940166666667     0.798401   
C45      C      0.996266666667     0.059060000000     0.273500000000     0.798401   
C45      C      0.996266666667     0.059060000000     0.606833333333     0.798401   
C45      C      0.996266666667     0.059060000000     0.940166666667     0.798401   
C45      C      0.996266666667     0.559060000000     0.273500000000     0.798401   
C45      C      0.996266666667     0.559060000000     0.606833333333     0.798401   
C45      C      0.996266666667     0.559060000000     0.940166666667     0.798401   
C46      C      0.020966666667     0.087475000000     0.325733333333     0.798141   
C46      C      0.020966666667     0.087475000000     0.659066666667     0.798141   
C46      C      0.020966666667     0.087475000000     0.992400000000     0.798141   
C46      C      0.020966666667     0.587475000000     0.325733333333     0.798141   
C46      C      0.020966666667     0.587475000000     0.659066666667     0.798141   
C46      C      0.020966666667     0.587475000000     0.992400000000     0.798141   
C46      C      0.354300000000     0.087475000000     0.325733333333     0.798141   
C46      C      0.354300000000     0.087475000000     0.659066666667     0.798141   
C46      C      0.354300000000     0.087475000000     0.992400000000     0.798141   
C46      C      0.354300000000     0.587475000000     0.325733333333     0.798141   
C46      C      0.354300000000     0.587475000000     0.659066666667     0.798141   
C46      C      0.354300000000     0.587475000000     0.992400000000     0.798141   
C46      C      0.687633333333     0.087475000000     0.325733333333     0.798141   
C46      C      0.687633333333     0.087475000000     0.659066666667     0.798141   
C46      C      0.687633333333     0.087475000000     0.992400000000     0.798141   
C46      C      0.687633333333     0.587475000000     0.325733333333     0.798141   
C46      C      0.687633333333     0.587475000000     0.659066666667     0.798141   
C46      C      0.687633333333     0.587475000000     0.992400000000     0.798141   
C47      C      0.187633333333     0.162525000000     0.159066666667     0.798076   
C47      C      0.187633333333     0.162525000000     0.492400000000     0.798076   
C47      C      0.187633333333     0.162525000000     0.825733333333     0.798076   
C47      C      0.187633333333     0.662525000000     0.159066666667     0.798076   
C47      C      0.187633333333     0.662525000000     0.492400000000     0.798076   
C47      C      0.187633333333     0.662525000000     0.825733333333     0.798076   
C47      C      0.520966666667     0.162525000000     0.159066666667     0.798076   
C47      C      0.520966666667     0.162525000000     0.492400000000     0.798076   
C47      C      0.520966666667     0.162525000000     0.825733333333     0.798076   
C47      C      0.520966666667     0.662525000000     0.159066666667     0.798076   
C47      C      0.520966666667     0.662525000000     0.492400000000     0.798076   
C47      C      0.520966666667     0.662525000000     0.825733333333     0.798076   
C47      C      0.854300000000     0.162525000000     0.159066666667     0.798076   
C47      C      0.854300000000     0.162525000000     0.492400000000     0.798076   
C47      C      0.854300000000     0.162525000000     0.825733333333     0.798076   
C47      C      0.854300000000     0.662525000000     0.159066666667     0.798076   
C47      C      0.854300000000     0.662525000000     0.492400000000     0.798076   
C47      C      0.854300000000     0.662525000000     0.825733333333     0.798076   
C48      C      0.162933333333     0.190940000000     0.106833333333     0.095108   
C48      C      0.162933333333     0.190940000000     0.440166666667     0.095108   
C48      C      0.162933333333     0.190940000000     0.773500000000     0.095108   
C48      C      0.162933333333     0.690940000000     0.106833333333     0.095108   
C48      C      0.162933333333     0.690940000000     0.440166666667     0.095108   
C48      C      0.162933333333     0.690940000000     0.773500000000     0.095108   
C48      C      0.496266666667     0.190940000000     0.106833333333     0.095108   
C48      C      0.496266666667     0.190940000000     0.440166666667     0.095108   
C48      C      0.496266666667     0.190940000000     0.773500000000     0.095108   
C48      C      0.496266666667     0.690940000000     0.106833333333     0.095108   
C48      C      0.496266666667     0.690940000000     0.440166666667     0.095108   
C48      C      0.496266666667     0.690940000000     0.773500000000     0.095108   
C48      C      0.829600000000     0.190940000000     0.106833333333     0.095108   
C48      C      0.829600000000     0.190940000000     0.440166666667     0.095108   
C48      C      0.829600000000     0.190940000000     0.773500000000     0.095108   
C48      C      0.829600000000     0.690940000000     0.106833333333     0.095108   
C48      C      0.829600000000     0.690940000000     0.440166666667     0.095108   
C48      C      0.829600000000     0.690940000000     0.773500000000     0.095108   
C49      C      0.148133333333     0.201715000000     0.067700000000     0.143308   
C49      C      0.148133333333     0.201715000000     0.401033333333     0.143308   
C49      C      0.148133333333     0.201715000000     0.734366666667     0.143308   
C49      C      0.148133333333     0.701715000000     0.067700000000     0.143308   
C49      C      0.148133333333     0.701715000000     0.401033333333     0.143308   
C49      C      0.148133333333     0.701715000000     0.734366666667     0.143308   
C49      C      0.481466666667     0.201715000000     0.067700000000     0.143308   
C49      C      0.481466666667     0.201715000000     0.401033333333     0.143308   
C49      C      0.481466666667     0.201715000000     0.734366666667     0.143308   
C49      C      0.481466666667     0.701715000000     0.067700000000     0.143308   
C49      C      0.481466666667     0.701715000000     0.401033333333     0.143308   
C49      C      0.481466666667     0.701715000000     0.734366666667     0.143308   
C49      C      0.814800000000     0.201715000000     0.067700000000     0.143308   
C49      C      0.814800000000     0.201715000000     0.401033333333     0.143308   
C49      C      0.814800000000     0.201715000000     0.734366666667     0.143308   
C49      C      0.814800000000     0.701715000000     0.067700000000     0.143308   
C49      C      0.814800000000     0.701715000000     0.401033333333     0.143308   
C49      C      0.814800000000     0.701715000000     0.734366666667     0.143308   
C50      C      0.127866666667     0.188000000000     0.006866666667     0.141017   
C50      C      0.127866666667     0.188000000000     0.340200000000     0.141017   
C50      C      0.127866666667     0.188000000000     0.673533333333     0.141017   
C50      C      0.127866666667     0.688000000000     0.006866666667     0.141017   
C50      C      0.127866666667     0.688000000000     0.340200000000     0.141017   
C50      C      0.127866666667     0.688000000000     0.673533333333     0.141017   
C50      C      0.461200000000     0.188000000000     0.006866666667     0.141017   
C50      C      0.461200000000     0.188000000000     0.340200000000     0.141017   
C50      C      0.461200000000     0.188000000000     0.673533333333     0.141017   
C50      C      0.461200000000     0.688000000000     0.006866666667     0.141017   
C50      C      0.461200000000     0.688000000000     0.340200000000     0.141017   
C50      C      0.461200000000     0.688000000000     0.673533333333     0.141017   
C50      C      0.794533333333     0.188000000000     0.006866666667     0.141017   
C50      C      0.794533333333     0.188000000000     0.340200000000     0.141017   
C50      C      0.794533333333     0.188000000000     0.673533333333     0.141017   
C50      C      0.794533333333     0.688000000000     0.006866666667     0.141017   
C50      C      0.794533333333     0.688000000000     0.340200000000     0.141017   
C50      C      0.794533333333     0.688000000000     0.673533333333     0.141017   
C51      C      0.039766666667     0.117700000000     0.018833333333     0.095097   
C51      C      0.039766666667     0.117700000000     0.352166666667     0.095097   
C51      C      0.039766666667     0.117700000000     0.685500000000     0.095097   
C51      C      0.039766666667     0.617700000000     0.018833333333     0.095097   
C51      C      0.039766666667     0.617700000000     0.352166666667     0.095097   
C51      C      0.039766666667     0.617700000000     0.685500000000     0.095097   
C51      C      0.373100000000     0.117700000000     0.018833333333     0.095097   
C51      C      0.373100000000     0.117700000000     0.352166666667     0.095097   
C51      C      0.373100000000     0.117700000000     0.685500000000     0.095097   
C51      C      0.373100000000     0.617700000000     0.018833333333     0.095097   
C51      C      0.373100000000     0.617700000000     0.352166666667     0.095097   
C51      C      0.373100000000     0.617700000000     0.685500000000     0.095097   
C51      C      0.706433333333     0.117700000000     0.018833333333     0.095097   
C51      C      0.706433333333     0.117700000000     0.352166666667     0.095097   
C51      C      0.706433333333     0.117700000000     0.685500000000     0.095097   
C51      C      0.706433333333     0.617700000000     0.018833333333     0.095097   
C51      C      0.706433333333     0.617700000000     0.352166666667     0.095097   
C51      C      0.706433333333     0.617700000000     0.685500000000     0.095097   
C52      C      0.113966666667     0.225200000000     0.000233333333     0.108501   
C52      C      0.113966666667     0.225200000000     0.333566666667     0.108501   
C52      C      0.113966666667     0.225200000000     0.666900000000     0.108501   
C52      C      0.113966666667     0.725200000000     0.000233333333     0.108501   
C52      C      0.113966666667     0.725200000000     0.333566666667     0.108501   
C52      C      0.113966666667     0.725200000000     0.666900000000     0.108501   
C52      C      0.447300000000     0.225200000000     0.000233333333     0.108501   
C52      C      0.447300000000     0.225200000000     0.333566666667     0.108501   
C52      C      0.447300000000     0.225200000000     0.666900000000     0.108501   
C52      C      0.447300000000     0.725200000000     0.000233333333     0.108501   
C52      C      0.447300000000     0.725200000000     0.333566666667     0.108501   
C52      C      0.447300000000     0.725200000000     0.666900000000     0.108501   
C52      C      0.780633333333     0.225200000000     0.000233333333     0.108501   
C52      C      0.780633333333     0.225200000000     0.333566666667     0.108501   
C52      C      0.780633333333     0.225200000000     0.666900000000     0.108501   
C52      C      0.780633333333     0.725200000000     0.000233333333     0.108501   
C52      C      0.780633333333     0.725200000000     0.333566666667     0.108501   
C52      C      0.780633333333     0.725200000000     0.666900000000     0.108501   
C53      C      0.017033333333     0.129045000000     0.268833333333     0.140419   
C53      C      0.017033333333     0.129045000000     0.602166666667     0.140419   
C53      C      0.017033333333     0.129045000000     0.935500000000     0.140419   
C53      C      0.017033333333     0.629045000000     0.268833333333     0.140419   
C53      C      0.017033333333     0.629045000000     0.602166666667     0.140419   
C53      C      0.017033333333     0.629045000000     0.935500000000     0.140419   
C53      C      0.350366666667     0.129045000000     0.268833333333     0.140419   
C53      C      0.350366666667     0.129045000000     0.602166666667     0.140419   
C53      C      0.350366666667     0.129045000000     0.935500000000     0.140419   
C53      C      0.350366666667     0.629045000000     0.268833333333     0.140419   
C53      C      0.350366666667     0.629045000000     0.602166666667     0.140419   
C53      C      0.350366666667     0.629045000000     0.935500000000     0.140419   
C53      C      0.683700000000     0.129045000000     0.268833333333     0.140419   
C53      C      0.683700000000     0.129045000000     0.602166666667     0.140419   
C53      C      0.683700000000     0.129045000000     0.935500000000     0.140419   
C53      C      0.683700000000     0.629045000000     0.268833333333     0.140419   
C53      C      0.683700000000     0.629045000000     0.602166666667     0.140419   
C53      C      0.683700000000     0.629045000000     0.935500000000     0.140419   
C54      C      0.120233333333     0.250550000000     0.029933333333     0.184659   
C54      C      0.120233333333     0.250550000000     0.363266666667     0.184659   
C54      C      0.120233333333     0.250550000000     0.696600000000     0.184659   
C54      C      0.120233333333     0.750550000000     0.029933333333     0.184659   
C54      C      0.120233333333     0.750550000000     0.363266666667     0.184659   
C54      C      0.120233333333     0.750550000000     0.696600000000     0.184659   
C54      C      0.453566666667     0.250550000000     0.029933333333     0.184659   
C54      C      0.453566666667     0.250550000000     0.363266666667     0.184659   
C54      C      0.453566666667     0.250550000000     0.696600000000     0.184659   
C54      C      0.453566666667     0.750550000000     0.029933333333     0.184659   
C54      C      0.453566666667     0.750550000000     0.363266666667     0.184659   
C54      C      0.453566666667     0.750550000000     0.696600000000     0.184659   
C54      C      0.786900000000     0.250550000000     0.029933333333     0.184659   
C54      C      0.786900000000     0.250550000000     0.363266666667     0.184659   
C54      C      0.786900000000     0.250550000000     0.696600000000     0.184659   
C54      C      0.786900000000     0.750550000000     0.029933333333     0.184659   
C54      C      0.786900000000     0.750550000000     0.363266666667     0.184659   
C54      C      0.786900000000     0.750550000000     0.696600000000     0.184659   
C55      C      0.059666666667     0.140075000000     0.261300000000     0.141703   
C55      C      0.059666666667     0.140075000000     0.594633333333     0.141703   
C55      C      0.059666666667     0.140075000000     0.927966666667     0.141703   
C55      C      0.059666666667     0.640075000000     0.261300000000     0.141703   
C55      C      0.059666666667     0.640075000000     0.594633333333     0.141703   
C55      C      0.059666666667     0.640075000000     0.927966666667     0.141703   
C55      C      0.393000000000     0.140075000000     0.261300000000     0.141703   
C55      C      0.393000000000     0.140075000000     0.594633333333     0.141703   
C55      C      0.393000000000     0.140075000000     0.927966666667     0.141703   
C55      C      0.393000000000     0.640075000000     0.261300000000     0.141703   
C55      C      0.393000000000     0.640075000000     0.594633333333     0.141703   
C55      C      0.393000000000     0.640075000000     0.927966666667     0.141703   
C55      C      0.726333333333     0.140075000000     0.261300000000     0.141703   
C55      C      0.726333333333     0.140075000000     0.594633333333     0.141703   
C55      C      0.726333333333     0.140075000000     0.927966666667     0.141703   
C55      C      0.726333333333     0.640075000000     0.261300000000     0.141703   
C55      C      0.726333333333     0.640075000000     0.594633333333     0.141703   
C55      C      0.726333333333     0.640075000000     0.927966666667     0.141703   
C56      C      0.312100000000     0.151140000000     0.259200000000     0.177976   
C56      C      0.312100000000     0.151140000000     0.592533333333     0.177976   
C56      C      0.312100000000     0.151140000000     0.925866666667     0.177976   
C56      C      0.312100000000     0.651140000000     0.259200000000     0.177976   
C56      C      0.312100000000     0.651140000000     0.592533333333     0.177976   
C56      C      0.312100000000     0.651140000000     0.925866666667     0.177976   
C56      C      0.645433333333     0.151140000000     0.259200000000     0.177976   
C56      C      0.645433333333     0.151140000000     0.592533333333     0.177976   
C56      C      0.645433333333     0.151140000000     0.925866666667     0.177976   
C56      C      0.645433333333     0.651140000000     0.259200000000     0.177976   
C56      C      0.645433333333     0.651140000000     0.592533333333     0.177976   
C56      C      0.645433333333     0.651140000000     0.925866666667     0.177976   
C56      C      0.978766666667     0.151140000000     0.259200000000     0.177976   
C56      C      0.978766666667     0.151140000000     0.592533333333     0.177976   
C56      C      0.978766666667     0.151140000000     0.925866666667     0.177976   
C56      C      0.978766666667     0.651140000000     0.259200000000     0.177976   
C56      C      0.978766666667     0.651140000000     0.592533333333     0.177976   
C56      C      0.978766666667     0.651140000000     0.925866666667     0.177976   
C57      C      0.064200000000     0.175350000000     0.243700000000     0.206784   
C57      C      0.064200000000     0.175350000000     0.577033333333     0.206784   
C57      C      0.064200000000     0.175350000000     0.910366666667     0.206784   
C57      C      0.064200000000     0.675350000000     0.243700000000     0.206784   
C57      C      0.064200000000     0.675350000000     0.577033333333     0.206784   
C57      C      0.064200000000     0.675350000000     0.910366666667     0.206784   
C57      C      0.397533333333     0.175350000000     0.243700000000     0.206784   
C57      C      0.397533333333     0.175350000000     0.577033333333     0.206784   
C57      C      0.397533333333     0.175350000000     0.910366666667     0.206784   
C57      C      0.397533333333     0.675350000000     0.243700000000     0.206784   
C57      C      0.397533333333     0.675350000000     0.577033333333     0.206784   
C57      C      0.397533333333     0.675350000000     0.910366666667     0.206784   
C57      C      0.730866666667     0.175350000000     0.243700000000     0.206784   
C57      C      0.730866666667     0.175350000000     0.577033333333     0.206784   
C57      C      0.730866666667     0.175350000000     0.910366666667     0.206784   
C57      C      0.730866666667     0.675350000000     0.243700000000     0.206784   
C57      C      0.730866666667     0.675350000000     0.577033333333     0.206784   
C57      C      0.730866666667     0.675350000000     0.910366666667     0.206784   
C58      C      0.316533333333     0.185620000000     0.240566666667     0.178002   
C58      C      0.316533333333     0.185620000000     0.573900000000     0.178002   
C58      C      0.316533333333     0.185620000000     0.907233333333     0.178002   
C58      C      0.316533333333     0.685620000000     0.240566666667     0.178002   
C58      C      0.316533333333     0.685620000000     0.573900000000     0.178002   
C58      C      0.316533333333     0.685620000000     0.907233333333     0.178002   
C58      C      0.649866666667     0.185620000000     0.240566666667     0.178002   
C58      C      0.649866666667     0.185620000000     0.573900000000     0.178002   
C58      C      0.649866666667     0.185620000000     0.907233333333     0.178002   
C58      C      0.649866666667     0.685620000000     0.240566666667     0.178002   
C58      C      0.649866666667     0.685620000000     0.573900000000     0.178002   
C58      C      0.649866666667     0.685620000000     0.907233333333     0.178002   
C58      C      0.983200000000     0.185620000000     0.240566666667     0.178002   
C58      C      0.983200000000     0.185620000000     0.573900000000     0.178002   
C58      C      0.983200000000     0.185620000000     0.907233333333     0.178002   
C58      C      0.983200000000     0.685620000000     0.240566666667     0.178002   
C58      C      0.983200000000     0.685620000000     0.573900000000     0.178002   
C58      C      0.983200000000     0.685620000000     0.907233333333     0.178002   
C59      C      0.025833333333     0.197575000000     0.232933333333     0.184666   
C59      C      0.025833333333     0.197575000000     0.566266666667     0.184666   
C59      C      0.025833333333     0.197575000000     0.899600000000     0.184666   
C59      C      0.025833333333     0.697575000000     0.232933333333     0.184666   
C59      C      0.025833333333     0.697575000000     0.566266666667     0.184666   
C59      C      0.025833333333     0.697575000000     0.899600000000     0.184666   
C59      C      0.359166666667     0.197575000000     0.232933333333     0.184666   
C59      C      0.359166666667     0.197575000000     0.566266666667     0.184666   
C59      C      0.359166666667     0.197575000000     0.899600000000     0.184666   
C59      C      0.359166666667     0.697575000000     0.232933333333     0.184666   
C59      C      0.359166666667     0.697575000000     0.566266666667     0.184666   
C59      C      0.359166666667     0.697575000000     0.899600000000     0.184666   
C59      C      0.692500000000     0.197575000000     0.232933333333     0.184666   
C59      C      0.692500000000     0.197575000000     0.566266666667     0.184666   
C59      C      0.692500000000     0.197575000000     0.899600000000     0.184666   
C59      C      0.692500000000     0.697575000000     0.232933333333     0.184666   
C59      C      0.692500000000     0.697575000000     0.566266666667     0.184666   
C59      C      0.692500000000     0.697575000000     0.899600000000     0.184666   
C60      C      0.274366666667     0.208850000000     0.227866666667     0.095104   
C60      C      0.274366666667     0.208850000000     0.561200000000     0.095104   
C60      C      0.274366666667     0.208850000000     0.894533333333     0.095104   
C60      C      0.274366666667     0.708850000000     0.227866666667     0.095104   
C60      C      0.274366666667     0.708850000000     0.561200000000     0.095104   
C60      C      0.274366666667     0.708850000000     0.894533333333     0.095104   
C60      C      0.607700000000     0.208850000000     0.227866666667     0.095104   
C60      C      0.607700000000     0.208850000000     0.561200000000     0.095104   
C60      C      0.607700000000     0.208850000000     0.894533333333     0.095104   
C60      C      0.607700000000     0.708850000000     0.227866666667     0.095104   
C60      C      0.607700000000     0.708850000000     0.561200000000     0.095104   
C60      C      0.607700000000     0.708850000000     0.894533333333     0.095104   
C60      C      0.941033333333     0.208850000000     0.227866666667     0.095104   
C60      C      0.941033333333     0.208850000000     0.561200000000     0.095104   
C60      C      0.941033333333     0.208850000000     0.894533333333     0.095104   
C60      C      0.941033333333     0.708850000000     0.227866666667     0.095104   
C60      C      0.941033333333     0.708850000000     0.561200000000     0.095104   
C60      C      0.941033333333     0.708850000000     0.894533333333     0.095104   
Co1      Co     0.182833333333     0.226875000000     0.218360000000     0.141014   
Co1      Co     0.182833333333     0.226875000000     0.551693333333     0.141014   
Co1      Co     0.182833333333     0.226875000000     0.885026666667     0.141014   
Co1      Co     0.182833333333     0.726875000000     0.218360000000     0.141014   
Co1      Co     0.182833333333     0.726875000000     0.551693333333     0.141014   
Co1      Co     0.182833333333     0.726875000000     0.885026666667     0.141014   
Co1      Co     0.516166666667     0.226875000000     0.218360000000     0.141014   
Co1      Co     0.516166666667     0.226875000000     0.551693333333     0.141014   
Co1      Co     0.516166666667     0.226875000000     0.885026666667     0.141014   
Co1      Co     0.516166666667     0.726875000000     0.218360000000     0.141014   
Co1      Co     0.516166666667     0.726875000000     0.551693333333     0.141014   
Co1      Co     0.516166666667     0.726875000000     0.885026666667     0.141014   
Co1      Co     0.849500000000     0.226875000000     0.218360000000     0.141014   
Co1      Co     0.849500000000     0.226875000000     0.551693333333     0.141014   
Co1      Co     0.849500000000     0.226875000000     0.885026666667     0.141014   
Co1      Co     0.849500000000     0.726875000000     0.218360000000     0.141014   
Co1      Co     0.849500000000     0.726875000000     0.551693333333     0.141014   
Co1      Co     0.849500000000     0.726875000000     0.885026666667     0.141014   
Co2      Co     0.016166666667     0.023125000000     0.051693333333     0.140372   
Co2      Co     0.016166666667     0.023125000000     0.385026666667     0.140372   
Co2      Co     0.016166666667     0.023125000000     0.718360000000     0.140372   
Co2      Co     0.016166666667     0.523125000000     0.051693333333     0.140372   
Co2      Co     0.016166666667     0.523125000000     0.385026666667     0.140372   
Co2      Co     0.016166666667     0.523125000000     0.718360000000     0.140372   
Co2      Co     0.349500000000     0.023125000000     0.051693333333     0.140372   
Co2      Co     0.349500000000     0.023125000000     0.385026666667     0.140372   
Co2      Co     0.349500000000     0.023125000000     0.718360000000     0.140372   
Co2      Co     0.349500000000     0.523125000000     0.051693333333     0.140372   
Co2      Co     0.349500000000     0.523125000000     0.385026666667     0.140372   
Co2      Co     0.349500000000     0.523125000000     0.718360000000     0.140372   
Co2      Co     0.682833333333     0.023125000000     0.051693333333     0.140372   
Co2      Co     0.682833333333     0.023125000000     0.385026666667     0.140372   
Co2      Co     0.682833333333     0.023125000000     0.718360000000     0.140372   
Co2      Co     0.682833333333     0.523125000000     0.051693333333     0.140372   
Co2      Co     0.682833333333     0.523125000000     0.385026666667     0.140372   
Co2      Co     0.682833333333     0.523125000000     0.718360000000     0.140372   
Co3      Co     0.317166666667     0.476875000000     0.281640000000     0.108512   
Co3      Co     0.317166666667     0.476875000000     0.614973333333     0.108512   
Co3      Co     0.317166666667     0.476875000000     0.948306666667     0.108512   
Co3      Co     0.317166666667     0.976875000000     0.281640000000     0.108512   
Co3      Co     0.317166666667     0.976875000000     0.614973333333     0.108512   
Co3      Co     0.317166666667     0.976875000000     0.948306666667     0.108512   
Co3      Co     0.650500000000     0.476875000000     0.281640000000     0.108512   
Co3      Co     0.650500000000     0.476875000000     0.614973333333     0.108512   
Co3      Co     0.650500000000     0.476875000000     0.948306666667     0.108512   
Co3      Co     0.650500000000     0.976875000000     0.281640000000     0.108512   
Co3      Co     0.650500000000     0.976875000000     0.614973333333     0.108512   
Co3      Co     0.650500000000     0.976875000000     0.948306666667     0.108512   
Co3      Co     0.983833333333     0.476875000000     0.281640000000     0.108512   
Co3      Co     0.983833333333     0.476875000000     0.614973333333     0.108512   
Co3      Co     0.983833333333     0.476875000000     0.948306666667     0.108512   
Co3      Co     0.983833333333     0.976875000000     0.281640000000     0.108512   
Co3      Co     0.983833333333     0.976875000000     0.614973333333     0.108512   
Co3      Co     0.983833333333     0.976875000000     0.948306666667     0.108512   
Co4      Co     0.150500000000     0.273125000000     0.114973333333     0.143271   
Co4      Co     0.150500000000     0.273125000000     0.448306666667     0.143271   
Co4      Co     0.150500000000     0.273125000000     0.781640000000     0.143271   
Co4      Co     0.150500000000     0.773125000000     0.114973333333     0.143271   
Co4      Co     0.150500000000     0.773125000000     0.448306666667     0.143271   
Co4      Co     0.150500000000     0.773125000000     0.781640000000     0.143271   
Co4      Co     0.483833333333     0.273125000000     0.114973333333     0.143271   
Co4      Co     0.483833333333     0.273125000000     0.448306666667     0.143271   
Co4      Co     0.483833333333     0.273125000000     0.781640000000     0.143271   
Co4      Co     0.483833333333     0.773125000000     0.114973333333     0.143271   
Co4      Co     0.483833333333     0.773125000000     0.448306666667     0.143271   
Co4      Co     0.483833333333     0.773125000000     0.781640000000     0.143271   
Co4      Co     0.817166666667     0.273125000000     0.114973333333     0.143271   
Co4      Co     0.817166666667     0.273125000000     0.448306666667     0.143271   
Co4      Co     0.817166666667     0.273125000000     0.781640000000     0.143271   
Co4      Co     0.817166666667     0.773125000000     0.114973333333     0.143271   
Co4      Co     0.817166666667     0.773125000000     0.448306666667     0.143271   
Co4      Co     0.817166666667     0.773125000000     0.781640000000     0.143271   
H1       H      0.207933333333     0.329550000000     0.013466666667     0.206788   
H1       H      0.207933333333     0.329550000000     0.346800000000     0.206788   
H1       H      0.207933333333     0.329550000000     0.680133333333     0.206788   
H1       H      0.207933333333     0.829550000000     0.013466666667     0.206788   
H1       H      0.207933333333     0.829550000000     0.346800000000     0.206788   
H1       H      0.207933333333     0.829550000000     0.680133333333     0.206788   
H1       H      0.541266666667     0.329550000000     0.013466666667     0.206788   
H1       H      0.541266666667     0.329550000000     0.346800000000     0.206788   
H1       H      0.541266666667     0.329550000000     0.680133333333     0.206788   
H1       H      0.541266666667     0.829550000000     0.013466666667     0.206788   
H1       H      0.541266666667     0.829550000000     0.346800000000     0.206788   
H1       H      0.541266666667     0.829550000000     0.680133333333     0.206788   
H1       H      0.874600000000     0.329550000000     0.013466666667     0.206788   
H1       H      0.874600000000     0.329550000000     0.346800000000     0.206788   
H1       H      0.874600000000     0.329550000000     0.680133333333     0.206788   
H1       H      0.874600000000     0.829550000000     0.013466666667     0.206788   
H1       H      0.874600000000     0.829550000000     0.346800000000     0.206788   
H1       H      0.874600000000     0.829550000000     0.680133333333     0.206788   
H2       H      0.116633333333     0.107000000000     0.098500000000     0.141693   
H2       H      0.116633333333     0.107000000000     0.431833333333     0.141693   
H2       H      0.116633333333     0.107000000000     0.765166666667     0.141693   
H2       H      0.116633333333     0.607000000000     0.098500000000     0.141693   
H2       H      0.116633333333     0.607000000000     0.431833333333     0.141693   
H2       H      0.116633333333     0.607000000000     0.765166666667     0.141693   
H2       H      0.449966666667     0.107000000000     0.098500000000     0.141693   
H2       H      0.449966666667     0.107000000000     0.431833333333     0.141693   
H2       H      0.449966666667     0.107000000000     0.765166666667     0.141693   
H2       H      0.449966666667     0.607000000000     0.098500000000     0.141693   
H2       H      0.449966666667     0.607000000000     0.431833333333     0.141693   
H2       H      0.449966666667     0.607000000000     0.765166666667     0.141693   
H2       H      0.783300000000     0.107000000000     0.098500000000     0.141693   
H2       H      0.783300000000     0.107000000000     0.431833333333     0.141693   
H2       H      0.783300000000     0.107000000000     0.765166666667     0.141693   
H2       H      0.783300000000     0.607000000000     0.098500000000     0.141693   
H2       H      0.783300000000     0.607000000000     0.431833333333     0.141693   
H2       H      0.783300000000     0.607000000000     0.765166666667     0.141693   
H3       H      0.232800000000     0.266800000000     0.023900000000     0.143289   
H3       H      0.232800000000     0.266800000000     0.357233333333     0.143289   
H3       H      0.232800000000     0.266800000000     0.690566666667     0.143289   
H3       H      0.232800000000     0.766800000000     0.023900000000     0.143289   
H3       H      0.232800000000     0.766800000000     0.357233333333     0.143289   
H3       H      0.232800000000     0.766800000000     0.690566666667     0.143289   
H3       H      0.566133333333     0.266800000000     0.023900000000     0.143289   
H3       H      0.566133333333     0.266800000000     0.357233333333     0.143289   
H3       H      0.566133333333     0.266800000000     0.690566666667     0.143289   
H3       H      0.566133333333     0.766800000000     0.023900000000     0.143289   
H3       H      0.566133333333     0.766800000000     0.357233333333     0.143289   
H3       H      0.566133333333     0.766800000000     0.690566666667     0.143289   
H3       H      0.899466666667     0.266800000000     0.023900000000     0.143289   
H3       H      0.899466666667     0.266800000000     0.357233333333     0.143289   
H3       H      0.899466666667     0.266800000000     0.690566666667     0.143289   
H3       H      0.899466666667     0.766800000000     0.023900000000     0.143289   
H3       H      0.899466666667     0.766800000000     0.357233333333     0.143289   
H3       H      0.899466666667     0.766800000000     0.690566666667     0.143289   
H4       H      0.292066666667     0.079550000000     0.153200000000     0.206795   
H4       H      0.292066666667     0.079550000000     0.486533333333     0.206795   
H4       H      0.292066666667     0.079550000000     0.819866666667     0.206795   
H4       H      0.292066666667     0.579550000000     0.153200000000     0.206795   
H4       H      0.292066666667     0.579550000000     0.486533333333     0.206795   
H4       H      0.292066666667     0.579550000000     0.819866666667     0.206795   
H4       H      0.625400000000     0.079550000000     0.153200000000     0.206795   
H4       H      0.625400000000     0.079550000000     0.486533333333     0.206795   
H4       H      0.625400000000     0.079550000000     0.819866666667     0.206795   
H4       H      0.625400000000     0.579550000000     0.153200000000     0.206795   
H4       H      0.625400000000     0.579550000000     0.486533333333     0.206795   
H4       H      0.625400000000     0.579550000000     0.819866666667     0.206795   
H4       H      0.958733333333     0.079550000000     0.153200000000     0.206795   
H4       H      0.958733333333     0.079550000000     0.486533333333     0.206795   
H4       H      0.958733333333     0.079550000000     0.819866666667     0.206795   
H4       H      0.958733333333     0.579550000000     0.153200000000     0.206795   
H4       H      0.958733333333     0.579550000000     0.486533333333     0.206795   
H4       H      0.958733333333     0.579550000000     0.819866666667     0.206795   
H5       H      0.221833333333     0.223400000000     0.307300000000     0.108496   
H5       H      0.221833333333     0.223400000000     0.640633333333     0.108496   
H5       H      0.221833333333     0.223400000000     0.973966666667     0.108496   
H5       H      0.221833333333     0.723400000000     0.307300000000     0.108496   
H5       H      0.221833333333     0.723400000000     0.640633333333     0.108496   
H5       H      0.221833333333     0.723400000000     0.973966666667     0.108496   
H5       H      0.555166666667     0.223400000000     0.307300000000     0.108496   
H5       H      0.555166666667     0.223400000000     0.640633333333     0.108496   
H5       H      0.555166666667     0.223400000000     0.973966666667     0.108496   
H5       H      0.555166666667     0.723400000000     0.307300000000     0.108496   
H5       H      0.555166666667     0.723400000000     0.640633333333     0.108496   
H5       H      0.555166666667     0.723400000000     0.973966666667     0.108496   
H5       H      0.888500000000     0.223400000000     0.307300000000     0.108496   
H5       H      0.888500000000     0.223400000000     0.640633333333     0.108496   
H5       H      0.888500000000     0.223400000000     0.973966666667     0.108496   
H5       H      0.888500000000     0.723400000000     0.307300000000     0.108496   
H5       H      0.888500000000     0.723400000000     0.640633333333     0.108496   
H5       H      0.888500000000     0.723400000000     0.973966666667     0.108496   
H6       H      0.252033333333     0.125950000000     0.101300000000     0.141714   
H6       H      0.252033333333     0.125950000000     0.434633333333     0.141714   
H6       H      0.252033333333     0.125950000000     0.767966666667     0.141714   
H6       H      0.252033333333     0.625950000000     0.101300000000     0.141714   
H6       H      0.252033333333     0.625950000000     0.434633333333     0.141714   
H6       H      0.252033333333     0.625950000000     0.767966666667     0.141714   
H6       H      0.585366666667     0.125950000000     0.101300000000     0.141714   
H6       H      0.585366666667     0.125950000000     0.434633333333     0.141714   
H6       H      0.585366666667     0.125950000000     0.767966666667     0.141714   
H6       H      0.585366666667     0.625950000000     0.101300000000     0.141714   
H6       H      0.585366666667     0.625950000000     0.434633333333     0.141714   
H6       H      0.585366666667     0.625950000000     0.767966666667     0.141714   
H6       H      0.918700000000     0.125950000000     0.101300000000     0.141714   
H6       H      0.918700000000     0.125950000000     0.434633333333     0.141714   
H6       H      0.918700000000     0.125950000000     0.767966666667     0.141714   
H6       H      0.918700000000     0.625950000000     0.101300000000     0.141714   
H6       H      0.918700000000     0.625950000000     0.434633333333     0.141714   
H6       H      0.918700000000     0.625950000000     0.767966666667     0.141714   
H7       H      0.239600000000     0.131300000000     0.186166666667     0.141002   
H7       H      0.239600000000     0.131300000000     0.519500000000     0.141002   
H7       H      0.239600000000     0.131300000000     0.852833333333     0.141002   
H7       H      0.239600000000     0.631300000000     0.186166666667     0.141002   
H7       H      0.239600000000     0.631300000000     0.519500000000     0.141002   
H7       H      0.239600000000     0.631300000000     0.852833333333     0.141002   
H7       H      0.572933333333     0.131300000000     0.186166666667     0.141002   
H7       H      0.572933333333     0.131300000000     0.519500000000     0.141002   
H7       H      0.572933333333     0.131300000000     0.852833333333     0.141002   
H7       H      0.572933333333     0.631300000000     0.186166666667     0.141002   
H7       H      0.572933333333     0.631300000000     0.519500000000     0.141002   
H7       H      0.572933333333     0.631300000000     0.852833333333     0.141002   
H7       H      0.906266666667     0.131300000000     0.186166666667     0.141002   
H7       H      0.906266666667     0.131300000000     0.519500000000     0.141002   
H7       H      0.906266666667     0.131300000000     0.852833333333     0.141002   
H7       H      0.906266666667     0.631300000000     0.186166666667     0.141002   
H7       H      0.906266666667     0.631300000000     0.519500000000     0.141002   
H7       H      0.906266666667     0.631300000000     0.852833333333     0.141002   
H8       H      0.304600000000     0.278850000000     0.113066666667     0.140391   
H8       H      0.304600000000     0.278850000000     0.446400000000     0.140391   
H8       H      0.304600000000     0.278850000000     0.779733333333     0.140391   
H8       H      0.304600000000     0.778850000000     0.113066666667     0.140391   
H8       H      0.304600000000     0.778850000000     0.446400000000     0.140391   
H8       H      0.304600000000     0.778850000000     0.779733333333     0.140391   
H8       H      0.637933333333     0.278850000000     0.113066666667     0.140391   
H8       H      0.637933333333     0.278850000000     0.446400000000     0.140391   
H8       H      0.637933333333     0.278850000000     0.779733333333     0.140391   
H8       H      0.637933333333     0.778850000000     0.113066666667     0.140391   
H8       H      0.637933333333     0.778850000000     0.446400000000     0.140391   
H8       H      0.637933333333     0.778850000000     0.779733333333     0.140391   
H8       H      0.971266666667     0.278850000000     0.113066666667     0.140391   
H8       H      0.971266666667     0.278850000000     0.446400000000     0.140391   
H8       H      0.971266666667     0.278850000000     0.779733333333     0.140391   
H8       H      0.971266666667     0.778850000000     0.113066666667     0.140391   
H8       H      0.971266666667     0.778850000000     0.446400000000     0.140391   
H8       H      0.971266666667     0.778850000000     0.779733333333     0.140391   
H9       H      0.193300000000     0.107450000000     0.177266666667     0.108523   
H9       H      0.193300000000     0.107450000000     0.510600000000     0.108523   
H9       H      0.193300000000     0.107450000000     0.843933333333     0.108523   
H9       H      0.193300000000     0.607450000000     0.177266666667     0.108523   
H9       H      0.193300000000     0.607450000000     0.510600000000     0.108523   
H9       H      0.193300000000     0.607450000000     0.843933333333     0.108523   
H9       H      0.526633333333     0.107450000000     0.177266666667     0.108523   
H9       H      0.526633333333     0.107450000000     0.510600000000     0.108523   
H9       H      0.526633333333     0.107450000000     0.843933333333     0.108523   
H9       H      0.526633333333     0.607450000000     0.177266666667     0.108523   
H9       H      0.526633333333     0.607450000000     0.510600000000     0.108523   
H9       H      0.526633333333     0.607450000000     0.843933333333     0.108523   
H9       H      0.859966666667     0.107450000000     0.177266666667     0.108523   
H9       H      0.859966666667     0.107450000000     0.510600000000     0.108523   
H9       H      0.859966666667     0.107450000000     0.843933333333     0.108523   
H9       H      0.859966666667     0.607450000000     0.177266666667     0.108523   
H9       H      0.859966666667     0.607450000000     0.510600000000     0.108523   
H9       H      0.859966666667     0.607450000000     0.843933333333     0.108523   
H10      H      0.032200000000     0.111850000000     0.043866666667     0.141026   
H10      H      0.032200000000     0.111850000000     0.377200000000     0.141026   
H10      H      0.032200000000     0.111850000000     0.710533333333     0.141026   
H10      H      0.032200000000     0.611850000000     0.043866666667     0.141026   
H10      H      0.032200000000     0.611850000000     0.377200000000     0.141026   
H10      H      0.032200000000     0.611850000000     0.710533333333     0.141026   
H10      H      0.365533333333     0.111850000000     0.043866666667     0.141026   
H10      H      0.365533333333     0.111850000000     0.377200000000     0.141026   
H10      H      0.365533333333     0.111850000000     0.710533333333     0.141026   
H10      H      0.365533333333     0.611850000000     0.043866666667     0.141026   
H10      H      0.365533333333     0.611850000000     0.377200000000     0.141026   
H10      H      0.365533333333     0.611850000000     0.710533333333     0.141026   
H10      H      0.698866666667     0.111850000000     0.043866666667     0.141026   
H10      H      0.698866666667     0.111850000000     0.377200000000     0.141026   
H10      H      0.698866666667     0.111850000000     0.710533333333     0.141026   
H10      H      0.698866666667     0.611850000000     0.043866666667     0.141026   
H10      H      0.698866666667     0.611850000000     0.377200000000     0.141026   
H10      H      0.698866666667     0.611850000000     0.710533333333     0.141026   
H11      H      0.026633333333     0.142550000000     0.010600000000     0.095128   
H11      H      0.026633333333     0.142550000000     0.343933333333     0.095128   
H11      H      0.026633333333     0.142550000000     0.677266666667     0.095128   
H11      H      0.026633333333     0.642550000000     0.010600000000     0.095128   
H11      H      0.026633333333     0.642550000000     0.343933333333     0.095128   
H11      H      0.026633333333     0.642550000000     0.677266666667     0.095128   
H11      H      0.359966666667     0.142550000000     0.010600000000     0.095128   
H11      H      0.359966666667     0.142550000000     0.343933333333     0.095128   
H11      H      0.359966666667     0.142550000000     0.677266666667     0.095128   
H11      H      0.359966666667     0.642550000000     0.010600000000     0.095128   
H11      H      0.359966666667     0.642550000000     0.343933333333     0.095128   
H11      H      0.359966666667     0.642550000000     0.677266666667     0.095128   
H11      H      0.693300000000     0.142550000000     0.010600000000     0.095128   
H11      H      0.693300000000     0.142550000000     0.343933333333     0.095128   
H11      H      0.693300000000     0.142550000000     0.677266666667     0.095128   
H11      H      0.693300000000     0.642550000000     0.010600000000     0.095128   
H11      H      0.693300000000     0.642550000000     0.343933333333     0.095128   
H11      H      0.693300000000     0.642550000000     0.677266666667     0.095128   
H12      H      0.072933333333     0.118700000000     0.019500000000     0.14167    
H12      H      0.072933333333     0.118700000000     0.352833333333     0.14167    
H12      H      0.072933333333     0.118700000000     0.686166666667     0.14167    
H12      H      0.072933333333     0.618700000000     0.019500000000     0.14167    
H12      H      0.072933333333     0.618700000000     0.352833333333     0.14167    
H12      H      0.072933333333     0.618700000000     0.686166666667     0.14167    
H12      H      0.406266666667     0.118700000000     0.019500000000     0.14167    
H12      H      0.406266666667     0.118700000000     0.352833333333     0.14167    
H12      H      0.406266666667     0.118700000000     0.686166666667     0.14167    
H12      H      0.406266666667     0.618700000000     0.019500000000     0.14167    
H12      H      0.406266666667     0.618700000000     0.352833333333     0.14167    
H12      H      0.406266666667     0.618700000000     0.686166666667     0.14167    
H12      H      0.739600000000     0.118700000000     0.019500000000     0.14167    
H12      H      0.739600000000     0.118700000000     0.352833333333     0.14167    
H12      H      0.739600000000     0.118700000000     0.686166666667     0.14167    
H12      H      0.739600000000     0.618700000000     0.019500000000     0.14167    
H12      H      0.739600000000     0.618700000000     0.352833333333     0.14167    
H12      H      0.739600000000     0.618700000000     0.686166666667     0.14167    
H13      H      0.125400000000     0.170450000000     0.319866666667     0.206793   
H13      H      0.125400000000     0.170450000000     0.653200000000     0.206793   
H13      H      0.125400000000     0.170450000000     0.986533333333     0.206793   
H13      H      0.125400000000     0.670450000000     0.319866666667     0.206793   
H13      H      0.125400000000     0.670450000000     0.653200000000     0.206793   
H13      H      0.125400000000     0.670450000000     0.986533333333     0.206793   
H13      H      0.458733333333     0.170450000000     0.319866666667     0.206793   
H13      H      0.458733333333     0.170450000000     0.653200000000     0.206793   
H13      H      0.458733333333     0.170450000000     0.986533333333     0.206793   
H13      H      0.458733333333     0.670450000000     0.319866666667     0.206793   
H13      H      0.458733333333     0.670450000000     0.653200000000     0.206793   
H13      H      0.458733333333     0.670450000000     0.986533333333     0.206793   
H13      H      0.792066666667     0.170450000000     0.319866666667     0.206793   
H13      H      0.792066666667     0.170450000000     0.653200000000     0.206793   
H13      H      0.792066666667     0.170450000000     0.986533333333     0.206793   
H13      H      0.792066666667     0.670450000000     0.319866666667     0.206793   
H13      H      0.792066666667     0.670450000000     0.653200000000     0.206793   
H13      H      0.792066666667     0.670450000000     0.986533333333     0.206793   
H14      H      0.100533333333     0.233200000000     0.309433333333     0.140382   
H14      H      0.100533333333     0.233200000000     0.642766666667     0.140382   
H14      H      0.100533333333     0.233200000000     0.976100000000     0.140382   
H14      H      0.100533333333     0.733200000000     0.309433333333     0.140382   
H14      H      0.100533333333     0.733200000000     0.642766666667     0.140382   
H14      H      0.100533333333     0.733200000000     0.976100000000     0.140382   
H14      H      0.433866666667     0.233200000000     0.309433333333     0.140382   
H14      H      0.433866666667     0.233200000000     0.642766666667     0.140382   
H14      H      0.433866666667     0.233200000000     0.976100000000     0.140382   
H14      H      0.433866666667     0.733200000000     0.309433333333     0.140382   
H14      H      0.433866666667     0.733200000000     0.642766666667     0.140382   
H14      H      0.433866666667     0.733200000000     0.976100000000     0.140382   
H14      H      0.767200000000     0.233200000000     0.309433333333     0.140382   
H14      H      0.767200000000     0.233200000000     0.642766666667     0.140382   
H14      H      0.767200000000     0.233200000000     0.976100000000     0.140382   
H14      H      0.767200000000     0.733200000000     0.309433333333     0.140382   
H14      H      0.767200000000     0.733200000000     0.642766666667     0.140382   
H14      H      0.767200000000     0.733200000000     0.976100000000     0.140382   
H15      H      0.085366666667     0.124050000000     0.267966666667     0.177991   
H15      H      0.085366666667     0.124050000000     0.601300000000     0.177991   
H15      H      0.085366666667     0.124050000000     0.934633333333     0.177991   
H15      H      0.085366666667     0.624050000000     0.267966666667     0.177991   
H15      H      0.085366666667     0.624050000000     0.601300000000     0.177991   
H15      H      0.085366666667     0.624050000000     0.934633333333     0.177991   
H15      H      0.418700000000     0.124050000000     0.267966666667     0.177991   
H15      H      0.418700000000     0.124050000000     0.601300000000     0.177991   
H15      H      0.418700000000     0.124050000000     0.934633333333     0.177991   
H15      H      0.418700000000     0.624050000000     0.267966666667     0.177991   
H15      H      0.418700000000     0.624050000000     0.601300000000     0.177991   
H15      H      0.418700000000     0.624050000000     0.934633333333     0.177991   
H15      H      0.752033333333     0.124050000000     0.267966666667     0.177991   
H15      H      0.752033333333     0.124050000000     0.601300000000     0.177991   
H15      H      0.752033333333     0.124050000000     0.934633333333     0.177991   
H15      H      0.752033333333     0.624050000000     0.267966666667     0.177991   
H15      H      0.752033333333     0.624050000000     0.601300000000     0.177991   
H15      H      0.752033333333     0.624050000000     0.934633333333     0.177991   
H16      H      0.111500000000     0.276600000000     0.026033333333     0.184665   
H16      H      0.111500000000     0.276600000000     0.359366666667     0.184665   
H16      H      0.111500000000     0.276600000000     0.692700000000     0.184665   
H16      H      0.111500000000     0.776600000000     0.026033333333     0.184665   
H16      H      0.111500000000     0.776600000000     0.359366666667     0.184665   
H16      H      0.111500000000     0.776600000000     0.692700000000     0.184665   
H16      H      0.444833333333     0.276600000000     0.026033333333     0.184665   
H16      H      0.444833333333     0.276600000000     0.359366666667     0.184665   
H16      H      0.444833333333     0.276600000000     0.692700000000     0.184665   
H16      H      0.444833333333     0.776600000000     0.026033333333     0.184665   
H16      H      0.444833333333     0.776600000000     0.359366666667     0.184665   
H16      H      0.444833333333     0.776600000000     0.692700000000     0.184665   
H16      H      0.778166666667     0.276600000000     0.026033333333     0.184665   
H16      H      0.778166666667     0.276600000000     0.359366666667     0.184665   
H16      H      0.778166666667     0.276600000000     0.692700000000     0.184665   
H16      H      0.778166666667     0.776600000000     0.026033333333     0.184665   
H16      H      0.778166666667     0.776600000000     0.359366666667     0.184665   
H16      H      0.778166666667     0.776600000000     0.692700000000     0.184665   
H17      H      0.283300000000     0.143000000000     0.265166666667     0.184657   
H17      H      0.283300000000     0.143000000000     0.598500000000     0.184657   
H17      H      0.283300000000     0.143000000000     0.931833333333     0.184657   
H17      H      0.283300000000     0.643000000000     0.265166666667     0.184657   
H17      H      0.283300000000     0.643000000000     0.598500000000     0.184657   
H17      H      0.283300000000     0.643000000000     0.931833333333     0.184657   
H17      H      0.616633333333     0.143000000000     0.265166666667     0.184657   
H17      H      0.616633333333     0.143000000000     0.598500000000     0.184657   
H17      H      0.616633333333     0.143000000000     0.931833333333     0.184657   
H17      H      0.616633333333     0.643000000000     0.265166666667     0.184657   
H17      H      0.616633333333     0.643000000000     0.598500000000     0.184657   
H17      H      0.616633333333     0.643000000000     0.931833333333     0.184657   
H17      H      0.949966666667     0.143000000000     0.265166666667     0.184657   
H17      H      0.949966666667     0.143000000000     0.598500000000     0.184657   
H17      H      0.949966666667     0.143000000000     0.931833333333     0.184657   
H17      H      0.949966666667     0.643000000000     0.265166666667     0.184657   
H17      H      0.949966666667     0.643000000000     0.598500000000     0.184657   
H17      H      0.949966666667     0.643000000000     0.931833333333     0.184657   
H18      H      0.198866666667     0.138150000000     0.210533333333     0.177982   
H18      H      0.198866666667     0.138150000000     0.543866666667     0.177982   
H18      H      0.198866666667     0.138150000000     0.877200000000     0.177982   
H18      H      0.198866666667     0.638150000000     0.210533333333     0.177982   
H18      H      0.198866666667     0.638150000000     0.543866666667     0.177982   
H18      H      0.198866666667     0.638150000000     0.877200000000     0.177982   
H18      H      0.532200000000     0.138150000000     0.210533333333     0.177982   
H18      H      0.532200000000     0.138150000000     0.543866666667     0.177982   
H18      H      0.532200000000     0.138150000000     0.877200000000     0.177982   
H18      H      0.532200000000     0.638150000000     0.210533333333     0.177982   
H18      H      0.532200000000     0.638150000000     0.543866666667     0.177982   
H18      H      0.532200000000     0.638150000000     0.877200000000     0.177982   
H18      H      0.865533333333     0.138150000000     0.210533333333     0.177982   
H18      H      0.865533333333     0.138150000000     0.543866666667     0.177982   
H18      H      0.865533333333     0.138150000000     0.877200000000     0.177982   
H18      H      0.865533333333     0.638150000000     0.210533333333     0.177982   
H18      H      0.865533333333     0.638150000000     0.543866666667     0.177982   
H18      H      0.865533333333     0.638150000000     0.877200000000     0.177982   
H19      H      0.028733333333     0.221150000000     0.220266666667     0.143273   
H19      H      0.028733333333     0.221150000000     0.553600000000     0.143273   
H19      H      0.028733333333     0.221150000000     0.886933333333     0.143273   
H19      H      0.028733333333     0.721150000000     0.220266666667     0.143273   
H19      H      0.028733333333     0.721150000000     0.553600000000     0.143273   
H19      H      0.028733333333     0.721150000000     0.886933333333     0.143273   
H19      H      0.362066666667     0.221150000000     0.220266666667     0.143273   
H19      H      0.362066666667     0.221150000000     0.553600000000     0.143273   
H19      H      0.362066666667     0.221150000000     0.886933333333     0.143273   
H19      H      0.362066666667     0.721150000000     0.220266666667     0.143273   
H19      H      0.362066666667     0.721150000000     0.553600000000     0.143273   
H19      H      0.362066666667     0.721150000000     0.886933333333     0.143273   
H19      H      0.695400000000     0.221150000000     0.220266666667     0.143273   
H19      H      0.695400000000     0.221150000000     0.553600000000     0.143273   
H19      H      0.695400000000     0.221150000000     0.886933333333     0.143273   
H19      H      0.695400000000     0.721150000000     0.220266666667     0.143273   
H19      H      0.695400000000     0.721150000000     0.553600000000     0.143273   
H19      H      0.695400000000     0.721150000000     0.886933333333     0.143273   
H20      H      0.050033333333     0.357000000000     0.068166666667    -0.099924   
H20      H      0.050033333333     0.357000000000     0.401500000000    -0.099924   
H20      H      0.050033333333     0.357000000000     0.734833333333    -0.099924   
H20      H      0.050033333333     0.857000000000     0.068166666667    -0.099924   
H20      H      0.050033333333     0.857000000000     0.401500000000    -0.099924   
H20      H      0.050033333333     0.857000000000     0.734833333333    -0.099924   
H20      H      0.383366666667     0.357000000000     0.068166666667    -0.099924   
H20      H      0.383366666667     0.357000000000     0.401500000000    -0.099924   
H20      H      0.383366666667     0.357000000000     0.734833333333    -0.099924   
H20      H      0.383366666667     0.857000000000     0.068166666667    -0.099924   
H20      H      0.383366666667     0.857000000000     0.401500000000    -0.099924   
H20      H      0.383366666667     0.857000000000     0.734833333333    -0.099924   
H20      H      0.716700000000     0.357000000000     0.068166666667    -0.099924   
H20      H      0.716700000000     0.357000000000     0.401500000000    -0.099924   
H20      H      0.716700000000     0.357000000000     0.734833333333    -0.099924   
H20      H      0.716700000000     0.857000000000     0.068166666667    -0.099924   
H20      H      0.716700000000     0.857000000000     0.401500000000    -0.099924   
H20      H      0.716700000000     0.857000000000     0.734833333333    -0.099924   
H21      H      0.134466666667     0.361850000000     0.122800000000    -0.216475   
H21      H      0.134466666667     0.361850000000     0.456133333333    -0.216475   
H21      H      0.134466666667     0.361850000000     0.789466666667    -0.216475   
H21      H      0.134466666667     0.861850000000     0.122800000000    -0.216475   
H21      H      0.134466666667     0.861850000000     0.456133333333    -0.216475   
H21      H      0.134466666667     0.861850000000     0.789466666667    -0.216475   
H21      H      0.467800000000     0.361850000000     0.122800000000    -0.216475   
H21      H      0.467800000000     0.361850000000     0.456133333333    -0.216475   
H21      H      0.467800000000     0.361850000000     0.789466666667    -0.216475   
H21      H      0.467800000000     0.861850000000     0.122800000000    -0.216475   
H21      H      0.467800000000     0.861850000000     0.456133333333    -0.216475   
H21      H      0.467800000000     0.861850000000     0.789466666667    -0.216475   
H21      H      0.801133333333     0.361850000000     0.122800000000    -0.216475   
H21      H      0.801133333333     0.361850000000     0.456133333333    -0.216475   
H21      H      0.801133333333     0.361850000000     0.789466666667    -0.216475   
H21      H      0.801133333333     0.861850000000     0.122800000000    -0.216475   
H21      H      0.801133333333     0.861850000000     0.456133333333    -0.216475   
H21      H      0.801133333333     0.861850000000     0.789466666667    -0.216475   
H22      H      0.278166666667     0.473400000000     0.192700000000    -0.193265   
H22      H      0.278166666667     0.473400000000     0.526033333333    -0.193265   
H22      H      0.278166666667     0.473400000000     0.859366666667    -0.193265   
H22      H      0.278166666667     0.973400000000     0.192700000000    -0.193265   
H22      H      0.278166666667     0.973400000000     0.526033333333    -0.193265   
H22      H      0.278166666667     0.973400000000     0.859366666667    -0.193265   
H22      H      0.611500000000     0.473400000000     0.192700000000    -0.193265   
H22      H      0.611500000000     0.473400000000     0.526033333333    -0.193265   
H22      H      0.611500000000     0.473400000000     0.859366666667    -0.193265   
H22      H      0.611500000000     0.973400000000     0.192700000000    -0.193265   
H22      H      0.611500000000     0.973400000000     0.526033333333    -0.193265   
H22      H      0.611500000000     0.973400000000     0.859366666667    -0.193265   
H22      H      0.944833333333     0.473400000000     0.192700000000    -0.193265   
H22      H      0.944833333333     0.473400000000     0.526033333333    -0.193265   
H22      H      0.944833333333     0.473400000000     0.859366666667    -0.193265   
H22      H      0.944833333333     0.973400000000     0.192700000000    -0.193265   
H22      H      0.944833333333     0.973400000000     0.526033333333    -0.193265   
H22      H      0.944833333333     0.973400000000     0.859366666667    -0.193265   
H23      H      0.195400000000     0.028850000000     0.053600000000    -0.301434   
H23      H      0.195400000000     0.028850000000     0.386933333333    -0.301434   
H23      H      0.195400000000     0.028850000000     0.720266666667    -0.301434   
H23      H      0.195400000000     0.528850000000     0.053600000000    -0.301434   
H23      H      0.195400000000     0.528850000000     0.386933333333    -0.301434   
H23      H      0.195400000000     0.528850000000     0.720266666667    -0.301434   
H23      H      0.528733333333     0.028850000000     0.053600000000    -0.301434   
H23      H      0.528733333333     0.028850000000     0.386933333333    -0.301434   
H23      H      0.528733333333     0.028850000000     0.720266666667    -0.301434   
H23      H      0.528733333333     0.528850000000     0.053600000000    -0.301434   
H23      H      0.528733333333     0.528850000000     0.386933333333    -0.301434   
H23      H      0.528733333333     0.528850000000     0.720266666667    -0.301434   
H23      H      0.862066666667     0.028850000000     0.053600000000    -0.301434   
H23      H      0.862066666667     0.028850000000     0.386933333333    -0.301434   
H23      H      0.862066666667     0.028850000000     0.720266666667    -0.301434   
H23      H      0.862066666667     0.528850000000     0.053600000000    -0.301434   
H23      H      0.862066666667     0.528850000000     0.386933333333    -0.301434   
H23      H      0.862066666667     0.528850000000     0.720266666667    -0.301434   
H24      H      0.267200000000     0.016800000000     0.142766666667    -0.287422   
H24      H      0.267200000000     0.016800000000     0.476100000000    -0.287422   
H24      H      0.267200000000     0.016800000000     0.809433333333    -0.287422   
H24      H      0.267200000000     0.516800000000     0.142766666667    -0.287422   
H24      H      0.267200000000     0.516800000000     0.476100000000    -0.287422   
H24      H      0.267200000000     0.516800000000     0.809433333333    -0.287422   
H24      H      0.600533333333     0.016800000000     0.142766666667    -0.287422   
H24      H      0.600533333333     0.016800000000     0.476100000000    -0.287422   
H24      H      0.600533333333     0.016800000000     0.809433333333    -0.287422   
H24      H      0.600533333333     0.516800000000     0.142766666667    -0.287422   
H24      H      0.600533333333     0.516800000000     0.476100000000    -0.287422   
H24      H      0.600533333333     0.516800000000     0.809433333333    -0.287422   
H24      H      0.933866666667     0.016800000000     0.142766666667    -0.287422   
H24      H      0.933866666667     0.016800000000     0.476100000000    -0.287422   
H24      H      0.933866666667     0.016800000000     0.809433333333    -0.287422   
H24      H      0.933866666667     0.516800000000     0.142766666667    -0.287422   
H24      H      0.933866666667     0.516800000000     0.476100000000    -0.287422   
H24      H      0.933866666667     0.516800000000     0.809433333333    -0.287422   
H25      H      0.247966666667     0.375950000000     0.065366666667    -0.09995    
H25      H      0.247966666667     0.375950000000     0.398700000000    -0.09995    
H25      H      0.247966666667     0.375950000000     0.732033333333    -0.09995    
H25      H      0.247966666667     0.875950000000     0.065366666667    -0.09995    
H25      H      0.247966666667     0.875950000000     0.398700000000    -0.09995    
H25      H      0.247966666667     0.875950000000     0.732033333333    -0.09995    
H25      H      0.581300000000     0.375950000000     0.065366666667    -0.09995    
H25      H      0.581300000000     0.375950000000     0.398700000000    -0.09995    
H25      H      0.581300000000     0.375950000000     0.732033333333    -0.09995    
H25      H      0.581300000000     0.875950000000     0.065366666667    -0.09995    
H25      H      0.581300000000     0.875950000000     0.398700000000    -0.09995    
H25      H      0.581300000000     0.875950000000     0.732033333333    -0.09995    
H25      H      0.914633333333     0.375950000000     0.065366666667    -0.09995    
H25      H      0.914633333333     0.375950000000     0.398700000000    -0.09995    
H25      H      0.914633333333     0.375950000000     0.732033333333    -0.09995    
H25      H      0.914633333333     0.875950000000     0.065366666667    -0.09995    
H25      H      0.914633333333     0.875950000000     0.398700000000    -0.09995    
H25      H      0.914633333333     0.875950000000     0.732033333333    -0.09995    
H26      H      0.055166666667     0.026600000000     0.140633333333    -0.216427   
H26      H      0.055166666667     0.026600000000     0.473966666667    -0.216427   
H26      H      0.055166666667     0.026600000000     0.807300000000    -0.216427   
H26      H      0.055166666667     0.526600000000     0.140633333333    -0.216427   
H26      H      0.055166666667     0.526600000000     0.473966666667    -0.216427   
H26      H      0.055166666667     0.526600000000     0.807300000000    -0.216427   
H26      H      0.388500000000     0.026600000000     0.140633333333    -0.216427   
H26      H      0.388500000000     0.026600000000     0.473966666667    -0.216427   
H26      H      0.388500000000     0.026600000000     0.807300000000    -0.216427   
H26      H      0.388500000000     0.526600000000     0.140633333333    -0.216427   
H26      H      0.388500000000     0.526600000000     0.473966666667    -0.216427   
H26      H      0.388500000000     0.526600000000     0.807300000000    -0.216427   
H26      H      0.721833333333     0.026600000000     0.140633333333    -0.216427   
H26      H      0.721833333333     0.026600000000     0.473966666667    -0.216427   
H26      H      0.721833333333     0.026600000000     0.807300000000    -0.216427   
H26      H      0.721833333333     0.526600000000     0.140633333333    -0.216427   
H26      H      0.721833333333     0.526600000000     0.473966666667    -0.216427   
H26      H      0.721833333333     0.526600000000     0.807300000000    -0.216427   
H27      H      0.066133333333     0.483200000000     0.190566666667    -0.287448   
H27      H      0.066133333333     0.483200000000     0.523900000000    -0.287448   
H27      H      0.066133333333     0.483200000000     0.857233333333    -0.287448   
H27      H      0.066133333333     0.983200000000     0.190566666667    -0.287448   
H27      H      0.066133333333     0.983200000000     0.523900000000    -0.287448   
H27      H      0.066133333333     0.983200000000     0.857233333333    -0.287448   
H27      H      0.399466666667     0.483200000000     0.190566666667    -0.287448   
H27      H      0.399466666667     0.483200000000     0.523900000000    -0.287448   
H27      H      0.399466666667     0.483200000000     0.857233333333    -0.287448   
H27      H      0.399466666667     0.983200000000     0.190566666667    -0.287448   
H27      H      0.399466666667     0.983200000000     0.523900000000    -0.287448   
H27      H      0.399466666667     0.983200000000     0.857233333333    -0.287448   
H27      H      0.732800000000     0.483200000000     0.190566666667    -0.287448   
H27      H      0.732800000000     0.483200000000     0.523900000000    -0.287448   
H27      H      0.732800000000     0.483200000000     0.857233333333    -0.287448   
H27      H      0.732800000000     0.983200000000     0.190566666667    -0.287448   
H27      H      0.732800000000     0.983200000000     0.523900000000    -0.287448   
H27      H      0.732800000000     0.983200000000     0.857233333333    -0.287448   
H28      H      0.041266666667     0.420450000000     0.180133333333    -0.301463   
H28      H      0.041266666667     0.420450000000     0.513466666667    -0.301463   
H28      H      0.041266666667     0.420450000000     0.846800000000    -0.301463   
H28      H      0.041266666667     0.920450000000     0.180133333333    -0.301463   
H28      H      0.041266666667     0.920450000000     0.513466666667    -0.301463   
H28      H      0.041266666667     0.920450000000     0.846800000000    -0.301463   
H28      H      0.374600000000     0.420450000000     0.180133333333    -0.301463   
H28      H      0.374600000000     0.420450000000     0.513466666667    -0.301463   
H28      H      0.374600000000     0.420450000000     0.846800000000    -0.301463   
H28      H      0.374600000000     0.920450000000     0.180133333333    -0.301463   
H28      H      0.374600000000     0.920450000000     0.513466666667    -0.301463   
H28      H      0.374600000000     0.920450000000     0.846800000000    -0.301463   
H28      H      0.707933333333     0.420450000000     0.180133333333    -0.301463   
H28      H      0.707933333333     0.420450000000     0.513466666667    -0.301463   
H28      H      0.707933333333     0.420450000000     0.846800000000    -0.301463   
H28      H      0.707933333333     0.920450000000     0.180133333333    -0.301463   
H28      H      0.707933333333     0.920450000000     0.513466666667    -0.301463   
H28      H      0.707933333333     0.920450000000     0.846800000000    -0.301463   
H29      H      0.137933333333     0.471150000000     0.279733333333    -0.21639    
H29      H      0.137933333333     0.471150000000     0.613066666667    -0.21639    
H29      H      0.137933333333     0.471150000000     0.946400000000    -0.21639    
H29      H      0.137933333333     0.971150000000     0.279733333333    -0.21639    
H29      H      0.137933333333     0.971150000000     0.613066666667    -0.21639    
H29      H      0.137933333333     0.971150000000     0.946400000000    -0.21639    
H29      H      0.471266666667     0.471150000000     0.279733333333    -0.21639    
H29      H      0.471266666667     0.471150000000     0.613066666667    -0.21639    
H29      H      0.471266666667     0.471150000000     0.946400000000    -0.21639    
H29      H      0.471266666667     0.971150000000     0.279733333333    -0.21639    
H29      H      0.471266666667     0.971150000000     0.613066666667    -0.21639    
H29      H      0.471266666667     0.971150000000     0.946400000000    -0.21639    
H29      H      0.804600000000     0.471150000000     0.279733333333    -0.21639    
H29      H      0.804600000000     0.471150000000     0.613066666667    -0.21639    
H29      H      0.804600000000     0.471150000000     0.946400000000    -0.21639    
H29      H      0.804600000000     0.971150000000     0.279733333333    -0.21639    
H29      H      0.804600000000     0.971150000000     0.613066666667    -0.21639    
H29      H      0.804600000000     0.971150000000     0.946400000000    -0.21639    
H30      H      0.301133333333     0.388150000000     0.289466666667    -0.099916   
H30      H      0.301133333333     0.388150000000     0.622800000000    -0.099916   
H30      H      0.301133333333     0.388150000000     0.956133333333    -0.099916   
H30      H      0.301133333333     0.888150000000     0.289466666667    -0.099916   
H30      H      0.301133333333     0.888150000000     0.622800000000    -0.099916   
H30      H      0.301133333333     0.888150000000     0.956133333333    -0.099916   
H30      H      0.634466666667     0.388150000000     0.289466666667    -0.099916   
H30      H      0.634466666667     0.388150000000     0.622800000000    -0.099916   
H30      H      0.634466666667     0.388150000000     0.956133333333    -0.099916   
H30      H      0.634466666667     0.888150000000     0.289466666667    -0.099916   
H30      H      0.634466666667     0.888150000000     0.622800000000    -0.099916   
H30      H      0.634466666667     0.888150000000     0.956133333333    -0.099916   
H30      H      0.967800000000     0.388150000000     0.289466666667    -0.099916   
H30      H      0.967800000000     0.388150000000     0.622800000000    -0.099916   
H30      H      0.967800000000     0.388150000000     0.956133333333    -0.099916   
H30      H      0.967800000000     0.888150000000     0.289466666667    -0.099916   
H30      H      0.967800000000     0.888150000000     0.622800000000    -0.099916   
H30      H      0.967800000000     0.888150000000     0.956133333333    -0.099916   
H31      H      0.081300000000     0.374050000000     0.232033333333    -0.193241   
H31      H      0.081300000000     0.374050000000     0.565366666667    -0.193241   
H31      H      0.081300000000     0.374050000000     0.898700000000    -0.193241   
H31      H      0.081300000000     0.874050000000     0.232033333333    -0.193241   
H31      H      0.081300000000     0.874050000000     0.565366666667    -0.193241   
H31      H      0.081300000000     0.874050000000     0.898700000000    -0.193241   
H31      H      0.414633333333     0.374050000000     0.232033333333    -0.193241   
H31      H      0.414633333333     0.374050000000     0.565366666667    -0.193241   
H31      H      0.414633333333     0.374050000000     0.898700000000    -0.193241   
H31      H      0.414633333333     0.874050000000     0.232033333333    -0.193241   
H31      H      0.414633333333     0.874050000000     0.565366666667    -0.193241   
H31      H      0.414633333333     0.874050000000     0.898700000000    -0.193241   
H31      H      0.747966666667     0.374050000000     0.232033333333    -0.193241   
H31      H      0.747966666667     0.374050000000     0.565366666667    -0.193241   
H31      H      0.747966666667     0.374050000000     0.898700000000    -0.193241   
H31      H      0.747966666667     0.874050000000     0.232033333333    -0.193241   
H31      H      0.747966666667     0.874050000000     0.565366666667    -0.193241   
H31      H      0.747966666667     0.874050000000     0.898700000000    -0.193241   
H32      H      0.306700000000     0.357450000000     0.322733333333    -0.09993    
H32      H      0.306700000000     0.357450000000     0.656066666667    -0.09993    
H32      H      0.306700000000     0.357450000000     0.989400000000    -0.09993    
H32      H      0.306700000000     0.857450000000     0.322733333333    -0.09993    
H32      H      0.306700000000     0.857450000000     0.656066666667    -0.09993    
H32      H      0.306700000000     0.857450000000     0.989400000000    -0.09993    
H32      H      0.640033333333     0.357450000000     0.322733333333    -0.09993    
H32      H      0.640033333333     0.357450000000     0.656066666667    -0.09993    
H32      H      0.640033333333     0.357450000000     0.989400000000    -0.09993    
H32      H      0.640033333333     0.857450000000     0.322733333333    -0.09993    
H32      H      0.640033333333     0.857450000000     0.656066666667    -0.09993    
H32      H      0.640033333333     0.857450000000     0.989400000000    -0.09993    
H32      H      0.973366666667     0.357450000000     0.322733333333    -0.09993    
H32      H      0.973366666667     0.357450000000     0.656066666667    -0.09993    
H32      H      0.973366666667     0.357450000000     0.989400000000    -0.09993    
H32      H      0.973366666667     0.857450000000     0.322733333333    -0.09993    
H32      H      0.973366666667     0.857450000000     0.656066666667    -0.09993    
H32      H      0.973366666667     0.857450000000     0.989400000000    -0.09993    
H33      H      0.260400000000     0.381300000000     0.313833333333    -0.216395   
H33      H      0.260400000000     0.381300000000     0.647166666667    -0.216395   
H33      H      0.260400000000     0.381300000000     0.980500000000    -0.216395   
H33      H      0.260400000000     0.881300000000     0.313833333333    -0.216395   
H33      H      0.260400000000     0.881300000000     0.647166666667    -0.216395   
H33      H      0.260400000000     0.881300000000     0.980500000000    -0.216395   
H33      H      0.593733333333     0.381300000000     0.313833333333    -0.216395   
H33      H      0.593733333333     0.381300000000     0.647166666667    -0.216395   
H33      H      0.593733333333     0.381300000000     0.980500000000    -0.216395   
H33      H      0.593733333333     0.881300000000     0.313833333333    -0.216395   
H33      H      0.593733333333     0.881300000000     0.647166666667    -0.216395   
H33      H      0.593733333333     0.881300000000     0.980500000000    -0.216395   
H33      H      0.927066666667     0.381300000000     0.313833333333    -0.216395   
H33      H      0.927066666667     0.381300000000     0.647166666667    -0.216395   
H33      H      0.927066666667     0.381300000000     0.980500000000    -0.216395   
H33      H      0.927066666667     0.881300000000     0.313833333333    -0.216395   
H33      H      0.927066666667     0.881300000000     0.647166666667    -0.216395   
H33      H      0.927066666667     0.881300000000     0.980500000000    -0.216395   
H34      H      0.093733333333     0.368700000000     0.147166666667    -0.193273   
H34      H      0.093733333333     0.368700000000     0.480500000000    -0.193273   
H34      H      0.093733333333     0.368700000000     0.813833333333    -0.193273   
H34      H      0.093733333333     0.868700000000     0.147166666667    -0.193273   
H34      H      0.093733333333     0.868700000000     0.480500000000    -0.193273   
H34      H      0.093733333333     0.868700000000     0.813833333333    -0.193273   
H34      H      0.427066666667     0.368700000000     0.147166666667    -0.193273   
H34      H      0.427066666667     0.368700000000     0.480500000000    -0.193273   
H34      H      0.427066666667     0.368700000000     0.813833333333    -0.193273   
H34      H      0.427066666667     0.868700000000     0.147166666667    -0.193273   
H34      H      0.427066666667     0.868700000000     0.480500000000    -0.193273   
H34      H      0.427066666667     0.868700000000     0.813833333333    -0.193273   
H34      H      0.760400000000     0.368700000000     0.147166666667    -0.193273   
H34      H      0.760400000000     0.368700000000     0.480500000000    -0.193273   
H34      H      0.760400000000     0.368700000000     0.813833333333    -0.193273   
H34      H      0.760400000000     0.868700000000     0.147166666667    -0.193273   
H34      H      0.760400000000     0.868700000000     0.480500000000    -0.193273   
H34      H      0.760400000000     0.868700000000     0.813833333333    -0.193273   
H35      H      0.140033333333     0.392550000000     0.156066666667    -0.193302   
H35      H      0.140033333333     0.392550000000     0.489400000000    -0.193302   
H35      H      0.140033333333     0.392550000000     0.822733333333    -0.193302   
H35      H      0.140033333333     0.892550000000     0.156066666667    -0.193302   
H35      H      0.140033333333     0.892550000000     0.489400000000    -0.193302   
H35      H      0.140033333333     0.892550000000     0.822733333333    -0.193302   
H35      H      0.473366666667     0.392550000000     0.156066666667    -0.193302   
H35      H      0.473366666667     0.392550000000     0.489400000000    -0.193302   
H35      H      0.473366666667     0.392550000000     0.822733333333    -0.193302   
H35      H      0.473366666667     0.892550000000     0.156066666667    -0.193302   
H35      H      0.473366666667     0.892550000000     0.489400000000    -0.193302   
H35      H      0.473366666667     0.892550000000     0.822733333333    -0.193302   
H35      H      0.806700000000     0.392550000000     0.156066666667    -0.193302   
H35      H      0.806700000000     0.392550000000     0.489400000000    -0.193302   
H35      H      0.806700000000     0.392550000000     0.822733333333    -0.193302   
H35      H      0.806700000000     0.892550000000     0.156066666667    -0.193302   
H35      H      0.806700000000     0.892550000000     0.489400000000    -0.193302   
H35      H      0.806700000000     0.892550000000     0.822733333333    -0.193302   
H36      H      0.216700000000     0.393000000000     0.234833333333    -0.30143    
H36      H      0.216700000000     0.393000000000     0.568166666667    -0.30143    
H36      H      0.216700000000     0.393000000000     0.901500000000    -0.30143    
H36      H      0.216700000000     0.893000000000     0.234833333333    -0.30143    
H36      H      0.216700000000     0.893000000000     0.568166666667    -0.30143    
H36      H      0.216700000000     0.893000000000     0.901500000000    -0.30143    
H36      H      0.550033333333     0.393000000000     0.234833333333    -0.30143    
H36      H      0.550033333333     0.393000000000     0.568166666667    -0.30143    
H36      H      0.550033333333     0.393000000000     0.901500000000    -0.30143    
H36      H      0.550033333333     0.893000000000     0.234833333333    -0.30143    
H36      H      0.550033333333     0.893000000000     0.568166666667    -0.30143    
H36      H      0.550033333333     0.893000000000     0.901500000000    -0.30143    
H36      H      0.883366666667     0.393000000000     0.234833333333    -0.30143    
H36      H      0.883366666667     0.393000000000     0.568166666667    -0.30143    
H36      H      0.883366666667     0.393000000000     0.901500000000    -0.30143    
H36      H      0.883366666667     0.893000000000     0.234833333333    -0.30143    
H36      H      0.883366666667     0.893000000000     0.568166666667    -0.30143    
H36      H      0.883366666667     0.893000000000     0.901500000000    -0.30143    
N1       N      0.011766666667     0.093090000000     0.287933333333    -0.30139    
N1       N      0.011766666667     0.093090000000     0.621266666667    -0.30139    
N1       N      0.011766666667     0.093090000000     0.954600000000    -0.30139    
N1       N      0.011766666667     0.593090000000     0.287933333333    -0.30139    
N1       N      0.011766666667     0.593090000000     0.621266666667    -0.30139    
N1       N      0.011766666667     0.593090000000     0.954600000000    -0.30139    
N1       N      0.345100000000     0.093090000000     0.287933333333    -0.30139    
N1       N      0.345100000000     0.093090000000     0.621266666667    -0.30139    
N1       N      0.345100000000     0.093090000000     0.954600000000    -0.30139    
N1       N      0.345100000000     0.593090000000     0.287933333333    -0.30139    
N1       N      0.345100000000     0.593090000000     0.621266666667    -0.30139    
N1       N      0.345100000000     0.593090000000     0.954600000000    -0.30139    
N1       N      0.678433333333     0.093090000000     0.287933333333    -0.30139    
N1       N      0.678433333333     0.093090000000     0.621266666667    -0.30139    
N1       N      0.678433333333     0.093090000000     0.954600000000    -0.30139    
N1       N      0.678433333333     0.593090000000     0.287933333333    -0.30139    
N1       N      0.678433333333     0.593090000000     0.621266666667    -0.30139    
N1       N      0.678433333333     0.593090000000     0.954600000000    -0.30139    
N2       N      0.011233333333     0.051755000000     0.000266666667    -0.28742    
N2       N      0.011233333333     0.051755000000     0.333600000000    -0.28742    
N2       N      0.011233333333     0.051755000000     0.666933333333    -0.28742    
N2       N      0.011233333333     0.551755000000     0.000266666667    -0.28742    
N2       N      0.011233333333     0.551755000000     0.333600000000    -0.28742    
N2       N      0.011233333333     0.551755000000     0.666933333333    -0.28742    
N2       N      0.344566666667     0.051755000000     0.000266666667    -0.28742    
N2       N      0.344566666667     0.051755000000     0.333600000000    -0.28742    
N2       N      0.344566666667     0.051755000000     0.666933333333    -0.28742    
N2       N      0.344566666667     0.551755000000     0.000266666667    -0.28742    
N2       N      0.344566666667     0.551755000000     0.333600000000    -0.28742    
N2       N      0.344566666667     0.551755000000     0.666933333333    -0.28742    
N2       N      0.677900000000     0.051755000000     0.000266666667    -0.28742    
N2       N      0.677900000000     0.051755000000     0.333600000000    -0.28742    
N2       N      0.677900000000     0.051755000000     0.666933333333    -0.28742    
N2       N      0.677900000000     0.551755000000     0.000266666667    -0.28742    
N2       N      0.677900000000     0.551755000000     0.333600000000    -0.28742    
N2       N      0.677900000000     0.551755000000     0.666933333333    -0.28742    
N3       N      0.328866666667     0.033840000000     0.300300000000    -0.287432   
N3       N      0.328866666667     0.033840000000     0.633633333333    -0.287432   
N3       N      0.328866666667     0.033840000000     0.966966666667    -0.287432   
N3       N      0.328866666667     0.533840000000     0.300300000000    -0.287432   
N3       N      0.328866666667     0.533840000000     0.633633333333    -0.287432   
N3       N      0.328866666667     0.533840000000     0.966966666667    -0.287432   
N3       N      0.662200000000     0.033840000000     0.300300000000    -0.287432   
N3       N      0.662200000000     0.033840000000     0.633633333333    -0.287432   
N3       N      0.662200000000     0.033840000000     0.966966666667    -0.287432   
N3       N      0.662200000000     0.533840000000     0.300300000000    -0.287432   
N3       N      0.662200000000     0.533840000000     0.633633333333    -0.287432   
N3       N      0.662200000000     0.533840000000     0.966966666667    -0.287432   
N3       N      0.995533333333     0.033840000000     0.300300000000    -0.287432   
N3       N      0.995533333333     0.033840000000     0.633633333333    -0.287432   
N3       N      0.995533333333     0.033840000000     0.966966666667    -0.287432   
N3       N      0.995533333333     0.533840000000     0.300300000000    -0.287432   
N3       N      0.995533333333     0.533840000000     0.633633333333    -0.287432   
N3       N      0.995533333333     0.533840000000     0.966966666667    -0.287432   
N4       N      0.311500000000     0.074625000000     0.207833333333    -0.556512   
N4       N      0.311500000000     0.074625000000     0.541166666667    -0.556512   
N4       N      0.311500000000     0.074625000000     0.874500000000    -0.556512   
N4       N      0.311500000000     0.574625000000     0.207833333333    -0.556512   
N4       N      0.311500000000     0.574625000000     0.541166666667    -0.556512   
N4       N      0.311500000000     0.574625000000     0.874500000000    -0.556512   
N4       N      0.644833333333     0.074625000000     0.207833333333    -0.556512   
N4       N      0.644833333333     0.074625000000     0.541166666667    -0.556512   
N4       N      0.644833333333     0.074625000000     0.874500000000    -0.556512   
N4       N      0.644833333333     0.574625000000     0.207833333333    -0.556512   
N4       N      0.644833333333     0.574625000000     0.541166666667    -0.556512   
N4       N      0.644833333333     0.574625000000     0.874500000000    -0.556512   
N4       N      0.978166666667     0.074625000000     0.207833333333    -0.556512   
N4       N      0.978166666667     0.074625000000     0.541166666667    -0.556512   
N4       N      0.978166666667     0.074625000000     0.874500000000    -0.556512   
N4       N      0.978166666667     0.574625000000     0.207833333333    -0.556512   
N4       N      0.978166666667     0.574625000000     0.541166666667    -0.556512   
N4       N      0.978166666667     0.574625000000     0.874500000000    -0.556512   
N5       N      0.305066666667     0.010845000000     0.230666666667    -0.554114   
N5       N      0.305066666667     0.010845000000     0.564000000000    -0.554114   
N5       N      0.305066666667     0.010845000000     0.897333333333    -0.554114   
N5       N      0.305066666667     0.510845000000     0.230666666667    -0.554114   
N5       N      0.305066666667     0.510845000000     0.564000000000    -0.554114   
N5       N      0.305066666667     0.510845000000     0.897333333333    -0.554114   
N5       N      0.638400000000     0.010845000000     0.230666666667    -0.554114   
N5       N      0.638400000000     0.010845000000     0.564000000000    -0.554114   
N5       N      0.638400000000     0.010845000000     0.897333333333    -0.554114   
N5       N      0.638400000000     0.510845000000     0.230666666667    -0.554114   
N5       N      0.638400000000     0.510845000000     0.564000000000    -0.554114   
N5       N      0.638400000000     0.510845000000     0.897333333333    -0.554114   
N5       N      0.971733333333     0.010845000000     0.230666666667    -0.554114   
N5       N      0.971733333333     0.010845000000     0.564000000000    -0.554114   
N5       N      0.971733333333     0.010845000000     0.897333333333    -0.554114   
N5       N      0.971733333333     0.510845000000     0.230666666667    -0.554114   
N5       N      0.971733333333     0.510845000000     0.564000000000    -0.554114   
N5       N      0.971733333333     0.510845000000     0.897333333333    -0.554114   
N6       N      0.178433333333     0.156910000000     0.121266666667    -0.554092   
N6       N      0.178433333333     0.156910000000     0.454600000000    -0.554092   
N6       N      0.178433333333     0.156910000000     0.787933333333    -0.554092   
N6       N      0.178433333333     0.656910000000     0.121266666667    -0.554092   
N6       N      0.178433333333     0.656910000000     0.454600000000    -0.554092   
N6       N      0.178433333333     0.656910000000     0.787933333333    -0.554092   
N6       N      0.511766666667     0.156910000000     0.121266666667    -0.554092   
N6       N      0.511766666667     0.156910000000     0.454600000000    -0.554092   
N6       N      0.511766666667     0.156910000000     0.787933333333    -0.554092   
N6       N      0.511766666667     0.656910000000     0.121266666667    -0.554092   
N6       N      0.511766666667     0.656910000000     0.454600000000    -0.554092   
N6       N      0.511766666667     0.656910000000     0.787933333333    -0.554092   
N6       N      0.845100000000     0.156910000000     0.121266666667    -0.554092   
N6       N      0.845100000000     0.156910000000     0.454600000000    -0.554092   
N6       N      0.845100000000     0.156910000000     0.787933333333    -0.554092   
N6       N      0.845100000000     0.656910000000     0.121266666667    -0.554092   
N6       N      0.845100000000     0.656910000000     0.454600000000    -0.554092   
N6       N      0.845100000000     0.656910000000     0.787933333333    -0.554092   
N7       N      0.177900000000     0.198245000000     0.166933333333    -0.556497   
N7       N      0.177900000000     0.198245000000     0.500266666667    -0.556497   
N7       N      0.177900000000     0.198245000000     0.833600000000    -0.556497   
N7       N      0.177900000000     0.698245000000     0.166933333333    -0.556497   
N7       N      0.177900000000     0.698245000000     0.500266666667    -0.556497   
N7       N      0.177900000000     0.698245000000     0.833600000000    -0.556497   
N7       N      0.511233333333     0.198245000000     0.166933333333    -0.556497   
N7       N      0.511233333333     0.198245000000     0.500266666667    -0.556497   
N7       N      0.511233333333     0.198245000000     0.833600000000    -0.556497   
N7       N      0.511233333333     0.698245000000     0.166933333333    -0.556497   
N7       N      0.511233333333     0.698245000000     0.500266666667    -0.556497   
N7       N      0.511233333333     0.698245000000     0.833600000000    -0.556497   
N7       N      0.844566666667     0.198245000000     0.166933333333    -0.556497   
N7       N      0.844566666667     0.198245000000     0.500266666667    -0.556497   
N7       N      0.844566666667     0.198245000000     0.833600000000    -0.556497   
N7       N      0.844566666667     0.698245000000     0.166933333333    -0.556497   
N7       N      0.844566666667     0.698245000000     0.500266666667    -0.556497   
N7       N      0.844566666667     0.698245000000     0.833600000000    -0.556497   
N8       N      0.028266666667     0.489155000000     0.102666666667    -0.555627   
N8       N      0.028266666667     0.489155000000     0.436000000000    -0.555627   
N8       N      0.028266666667     0.489155000000     0.769333333333    -0.555627   
N8       N      0.028266666667     0.989155000000     0.102666666667    -0.555627   
N8       N      0.028266666667     0.989155000000     0.436000000000    -0.555627   
N8       N      0.028266666667     0.989155000000     0.769333333333    -0.555627   
N8       N      0.361600000000     0.489155000000     0.102666666667    -0.555627   
N8       N      0.361600000000     0.489155000000     0.436000000000    -0.555627   
N8       N      0.361600000000     0.489155000000     0.769333333333    -0.555627   
N8       N      0.361600000000     0.989155000000     0.102666666667    -0.555627   
N8       N      0.361600000000     0.989155000000     0.436000000000    -0.555627   
N8       N      0.361600000000     0.989155000000     0.769333333333    -0.555627   
N8       N      0.694933333333     0.489155000000     0.102666666667    -0.555627   
N8       N      0.694933333333     0.489155000000     0.436000000000    -0.555627   
N8       N      0.694933333333     0.489155000000     0.769333333333    -0.555627   
N8       N      0.694933333333     0.989155000000     0.102666666667    -0.555627   
N8       N      0.694933333333     0.989155000000     0.436000000000    -0.555627   
N8       N      0.694933333333     0.989155000000     0.769333333333    -0.555627   
N9       N      0.144833333333     0.175375000000     0.041166666667    -0.555611   
N9       N      0.144833333333     0.175375000000     0.374500000000    -0.555611   
N9       N      0.144833333333     0.175375000000     0.707833333333    -0.555611   
N9       N      0.144833333333     0.675375000000     0.041166666667    -0.555611   
N9       N      0.144833333333     0.675375000000     0.374500000000    -0.555611   
N9       N      0.144833333333     0.675375000000     0.707833333333    -0.555611   
N9       N      0.478166666667     0.175375000000     0.041166666667    -0.555611   
N9       N      0.478166666667     0.175375000000     0.374500000000    -0.555611   
N9       N      0.478166666667     0.175375000000     0.707833333333    -0.555611   
N9       N      0.478166666667     0.675375000000     0.041166666667    -0.555611   
N9       N      0.478166666667     0.675375000000     0.374500000000    -0.555611   
N9       N      0.478166666667     0.675375000000     0.707833333333    -0.555611   
N9       N      0.811500000000     0.175375000000     0.041166666667    -0.555611   
N9       N      0.811500000000     0.175375000000     0.374500000000    -0.555611   
N9       N      0.811500000000     0.175375000000     0.707833333333    -0.555611   
N9       N      0.811500000000     0.675375000000     0.041166666667    -0.555611   
N9       N      0.811500000000     0.675375000000     0.374500000000    -0.555611   
N9       N      0.811500000000     0.675375000000     0.707833333333    -0.555611   
N10      N      0.322100000000     0.448245000000     0.333066666667    -0.562327   
N10      N      0.322100000000     0.448245000000     0.666400000000    -0.562327   
N10      N      0.322100000000     0.448245000000     0.999733333333    -0.562327   
N10      N      0.322100000000     0.948245000000     0.333066666667    -0.562327   
N10      N      0.322100000000     0.948245000000     0.666400000000    -0.562327   
N10      N      0.322100000000     0.948245000000     0.999733333333    -0.562327   
N10      N      0.655433333333     0.448245000000     0.333066666667    -0.562327   
N10      N      0.655433333333     0.448245000000     0.666400000000    -0.562327   
N10      N      0.655433333333     0.448245000000     0.999733333333    -0.562327   
N10      N      0.655433333333     0.948245000000     0.333066666667    -0.562327   
N10      N      0.655433333333     0.948245000000     0.666400000000    -0.562327   
N10      N      0.655433333333     0.948245000000     0.999733333333    -0.562327   
N10      N      0.988766666667     0.448245000000     0.333066666667    -0.562327   
N10      N      0.988766666667     0.448245000000     0.666400000000    -0.562327   
N10      N      0.988766666667     0.448245000000     0.999733333333    -0.562327   
N10      N      0.988766666667     0.948245000000     0.333066666667    -0.562327   
N10      N      0.988766666667     0.948245000000     0.666400000000    -0.562327   
N10      N      0.988766666667     0.948245000000     0.999733333333    -0.562327   
N11      N      0.321566666667     0.406910000000     0.045400000000    -0.555573   
N11      N      0.321566666667     0.406910000000     0.378733333333    -0.555573   
N11      N      0.321566666667     0.406910000000     0.712066666667    -0.555573   
N11      N      0.321566666667     0.906910000000     0.045400000000    -0.555573   
N11      N      0.321566666667     0.906910000000     0.378733333333    -0.555573   
N11      N      0.321566666667     0.906910000000     0.712066666667    -0.555573   
N11      N      0.654900000000     0.406910000000     0.045400000000    -0.555573   
N11      N      0.654900000000     0.406910000000     0.378733333333    -0.555573   
N11      N      0.654900000000     0.406910000000     0.712066666667    -0.555573   
N11      N      0.654900000000     0.906910000000     0.045400000000    -0.555573   
N11      N      0.654900000000     0.906910000000     0.378733333333    -0.555573   
N11      N      0.654900000000     0.906910000000     0.712066666667    -0.555573   
N11      N      0.988233333333     0.406910000000     0.045400000000    -0.555573   
N11      N      0.988233333333     0.406910000000     0.378733333333    -0.555573   
N11      N      0.988233333333     0.406910000000     0.712066666667    -0.555573   
N11      N      0.988233333333     0.906910000000     0.045400000000    -0.555573   
N11      N      0.988233333333     0.906910000000     0.378733333333    -0.555573   
N11      N      0.988233333333     0.906910000000     0.712066666667    -0.555573   
N12      N      0.162200000000     0.216160000000     0.133633333333    -0.562263   
N12      N      0.162200000000     0.216160000000     0.466966666667    -0.562263   
N12      N      0.162200000000     0.216160000000     0.800300000000    -0.562263   
N12      N      0.162200000000     0.716160000000     0.133633333333    -0.562263   
N12      N      0.162200000000     0.716160000000     0.466966666667    -0.562263   
N12      N      0.162200000000     0.716160000000     0.800300000000    -0.562263   
N12      N      0.495533333333     0.216160000000     0.133633333333    -0.562263   
N12      N      0.495533333333     0.216160000000     0.466966666667    -0.562263   
N12      N      0.495533333333     0.216160000000     0.800300000000    -0.562263   
N12      N      0.495533333333     0.716160000000     0.133633333333    -0.562263   
N12      N      0.495533333333     0.716160000000     0.466966666667    -0.562263   
N12      N      0.495533333333     0.716160000000     0.800300000000    -0.562263   
N12      N      0.828866666667     0.216160000000     0.133633333333    -0.562263   
N12      N      0.828866666667     0.216160000000     0.466966666667    -0.562263   
N12      N      0.828866666667     0.216160000000     0.800300000000    -0.562263   
N12      N      0.828866666667     0.716160000000     0.133633333333    -0.562263   
N12      N      0.828866666667     0.716160000000     0.466966666667    -0.562263   
N12      N      0.828866666667     0.716160000000     0.800300000000    -0.562263   
N13      N      0.154900000000     0.343090000000     0.212066666667    -0.554146   
N13      N      0.154900000000     0.343090000000     0.545400000000    -0.554146   
N13      N      0.154900000000     0.343090000000     0.878733333333    -0.554146   
N13      N      0.154900000000     0.843090000000     0.212066666667    -0.554146   
N13      N      0.154900000000     0.843090000000     0.545400000000    -0.554146   
N13      N      0.154900000000     0.843090000000     0.878733333333    -0.554146   
N13      N      0.488233333333     0.343090000000     0.212066666667    -0.554146   
N13      N      0.488233333333     0.343090000000     0.545400000000    -0.554146   
N13      N      0.488233333333     0.343090000000     0.878733333333    -0.554146   
N13      N      0.488233333333     0.843090000000     0.212066666667    -0.554146   
N13      N      0.488233333333     0.843090000000     0.545400000000    -0.554146   
N13      N      0.488233333333     0.843090000000     0.878733333333    -0.554146   
N13      N      0.821566666667     0.343090000000     0.212066666667    -0.554146   
N13      N      0.821566666667     0.343090000000     0.545400000000    -0.554146   
N13      N      0.821566666667     0.343090000000     0.878733333333    -0.554146   
N13      N      0.821566666667     0.843090000000     0.212066666667    -0.554146   
N13      N      0.821566666667     0.843090000000     0.545400000000    -0.554146   
N13      N      0.821566666667     0.843090000000     0.878733333333    -0.554146   
N14      N      0.155433333333     0.301755000000     0.166400000000    -0.555648   
N14      N      0.155433333333     0.301755000000     0.499733333333    -0.555648   
N14      N      0.155433333333     0.301755000000     0.833066666667    -0.555648   
N14      N      0.155433333333     0.801755000000     0.166400000000    -0.555648   
N14      N      0.155433333333     0.801755000000     0.499733333333    -0.555648   
N14      N      0.155433333333     0.801755000000     0.833066666667    -0.555648   
N14      N      0.488766666667     0.301755000000     0.166400000000    -0.555648   
N14      N      0.488766666667     0.301755000000     0.499733333333    -0.555648   
N14      N      0.488766666667     0.301755000000     0.833066666667    -0.555648   
N14      N      0.488766666667     0.801755000000     0.166400000000    -0.555648   
N14      N      0.488766666667     0.801755000000     0.499733333333    -0.555648   
N14      N      0.488766666667     0.801755000000     0.833066666667    -0.555648   
N14      N      0.822100000000     0.301755000000     0.166400000000    -0.555648   
N14      N      0.822100000000     0.301755000000     0.499733333333    -0.555648   
N14      N      0.822100000000     0.301755000000     0.833066666667    -0.555648   
N14      N      0.822100000000     0.801755000000     0.166400000000    -0.555648   
N14      N      0.822100000000     0.801755000000     0.499733333333    -0.555648   
N14      N      0.822100000000     0.801755000000     0.833066666667    -0.555648   
N15      N      0.171133333333     0.283840000000     0.199700000000    -0.562325   
N15      N      0.171133333333     0.283840000000     0.533033333333    -0.562325   
N15      N      0.171133333333     0.283840000000     0.866366666667    -0.562325   
N15      N      0.171133333333     0.783840000000     0.199700000000    -0.562325   
N15      N      0.171133333333     0.783840000000     0.533033333333    -0.562325   
N15      N      0.171133333333     0.783840000000     0.866366666667    -0.562325   
N15      N      0.504466666667     0.283840000000     0.199700000000    -0.562325   
N15      N      0.504466666667     0.283840000000     0.533033333333    -0.562325   
N15      N      0.504466666667     0.283840000000     0.866366666667    -0.562325   
N15      N      0.504466666667     0.783840000000     0.199700000000    -0.562325   
N15      N      0.504466666667     0.783840000000     0.533033333333    -0.562325   
N15      N      0.504466666667     0.783840000000     0.866366666667    -0.562325   
N15      N      0.837800000000     0.283840000000     0.199700000000    -0.562325   
N15      N      0.837800000000     0.283840000000     0.533033333333    -0.562325   
N15      N      0.837800000000     0.283840000000     0.866366666667    -0.562325   
N15      N      0.837800000000     0.783840000000     0.199700000000    -0.562325   
N15      N      0.837800000000     0.783840000000     0.533033333333    -0.562325   
N15      N      0.837800000000     0.783840000000     0.866366666667    -0.562325   
N16      N      0.004466666667     0.466160000000     0.033033333333    -0.556468   
N16      N      0.004466666667     0.466160000000     0.366366666667    -0.556468   
N16      N      0.004466666667     0.466160000000     0.699700000000    -0.556468   
N16      N      0.004466666667     0.966160000000     0.033033333333    -0.556468   
N16      N      0.004466666667     0.966160000000     0.366366666667    -0.556468   
N16      N      0.004466666667     0.966160000000     0.699700000000    -0.556468   
N16      N      0.337800000000     0.466160000000     0.033033333333    -0.556468   
N16      N      0.337800000000     0.466160000000     0.366366666667    -0.556468   
N16      N      0.337800000000     0.466160000000     0.699700000000    -0.556468   
N16      N      0.337800000000     0.966160000000     0.033033333333    -0.556468   
N16      N      0.337800000000     0.966160000000     0.366366666667    -0.556468   
N16      N      0.337800000000     0.966160000000     0.699700000000    -0.556468   
N16      N      0.671133333333     0.466160000000     0.033033333333    -0.556468   
N16      N      0.671133333333     0.466160000000     0.366366666667    -0.556468   
N16      N      0.671133333333     0.466160000000     0.699700000000    -0.556468   
N16      N      0.671133333333     0.966160000000     0.033033333333    -0.556468   
N16      N      0.671133333333     0.966160000000     0.366366666667    -0.556468   
N16      N      0.671133333333     0.966160000000     0.699700000000    -0.556468   
N17      N      0.188500000000     0.324625000000     0.292166666667    -0.55402    
N17      N      0.188500000000     0.324625000000     0.625500000000    -0.55402    
N17      N      0.188500000000     0.324625000000     0.958833333333    -0.55402    
N17      N      0.188500000000     0.824625000000     0.292166666667    -0.55402    
N17      N      0.188500000000     0.824625000000     0.625500000000    -0.55402    
N17      N      0.188500000000     0.824625000000     0.958833333333    -0.55402    
N17      N      0.521833333333     0.324625000000     0.292166666667    -0.55402    
N17      N      0.521833333333     0.324625000000     0.625500000000    -0.55402    
N17      N      0.521833333333     0.324625000000     0.958833333333    -0.55402    
N17      N      0.521833333333     0.824625000000     0.292166666667    -0.55402    
N17      N      0.521833333333     0.824625000000     0.625500000000    -0.55402    
N17      N      0.521833333333     0.824625000000     0.958833333333    -0.55402    
N17      N      0.855166666667     0.324625000000     0.292166666667    -0.55402    
N17      N      0.855166666667     0.324625000000     0.625500000000    -0.55402    
N17      N      0.855166666667     0.324625000000     0.958833333333    -0.55402    
N17      N      0.855166666667     0.824625000000     0.292166666667    -0.55402    
N17      N      0.855166666667     0.824625000000     0.625500000000    -0.55402    
N17      N      0.855166666667     0.824625000000     0.958833333333    -0.55402    
N18      N      0.021833333333     0.425375000000     0.125500000000    -0.562317   
N18      N      0.021833333333     0.425375000000     0.458833333333    -0.562317   
N18      N      0.021833333333     0.425375000000     0.792166666667    -0.562317   
N18      N      0.021833333333     0.925375000000     0.125500000000    -0.562317   
N18      N      0.021833333333     0.925375000000     0.458833333333    -0.562317   
N18      N      0.021833333333     0.925375000000     0.792166666667    -0.562317   
N18      N      0.355166666667     0.425375000000     0.125500000000    -0.562317   
N18      N      0.355166666667     0.425375000000     0.458833333333    -0.562317   
N18      N      0.355166666667     0.425375000000     0.792166666667    -0.562317   
N18      N      0.355166666667     0.925375000000     0.125500000000    -0.562317   
N18      N      0.355166666667     0.925375000000     0.458833333333    -0.562317   
N18      N      0.355166666667     0.925375000000     0.792166666667    -0.562317   
N18      N      0.688500000000     0.425375000000     0.125500000000    -0.562317   
N18      N      0.688500000000     0.425375000000     0.458833333333    -0.562317   
N18      N      0.688500000000     0.425375000000     0.792166666667    -0.562317   
N18      N      0.688500000000     0.925375000000     0.125500000000    -0.562317   
N18      N      0.688500000000     0.925375000000     0.458833333333    -0.562317   
N18      N      0.688500000000     0.925375000000     0.792166666667    -0.562317   
N19      N      0.138400000000     0.239155000000     0.064000000000    -0.556506   
N19      N      0.138400000000     0.239155000000     0.397333333333    -0.556506   
N19      N      0.138400000000     0.239155000000     0.730666666667    -0.556506   
N19      N      0.138400000000     0.739155000000     0.064000000000    -0.556506   
N19      N      0.138400000000     0.739155000000     0.397333333333    -0.556506   
N19      N      0.138400000000     0.739155000000     0.730666666667    -0.556506   
N19      N      0.471733333333     0.239155000000     0.064000000000    -0.556506   
N19      N      0.471733333333     0.239155000000     0.397333333333    -0.556506   
N19      N      0.471733333333     0.239155000000     0.730666666667    -0.556506   
N19      N      0.471733333333     0.739155000000     0.064000000000    -0.556506   
N19      N      0.471733333333     0.739155000000     0.397333333333    -0.556506   
N19      N      0.471733333333     0.739155000000     0.730666666667    -0.556506   
N19      N      0.805066666667     0.239155000000     0.064000000000    -0.556506   
N19      N      0.805066666667     0.239155000000     0.397333333333    -0.556506   
N19      N      0.805066666667     0.239155000000     0.730666666667    -0.556506   
N19      N      0.805066666667     0.739155000000     0.064000000000    -0.556506   
N19      N      0.805066666667     0.739155000000     0.397333333333    -0.556506   
N19      N      0.805066666667     0.739155000000     0.730666666667    -0.556506   
N20      N      0.194933333333     0.260845000000     0.269333333333     0.550798   
N20      N      0.194933333333     0.260845000000     0.602666666667     0.550798   
N20      N      0.194933333333     0.260845000000     0.936000000000     0.550798   
N20      N      0.194933333333     0.760845000000     0.269333333333     0.550798   
N20      N      0.194933333333     0.760845000000     0.602666666667     0.550798   
N20      N      0.194933333333     0.760845000000     0.936000000000     0.550798   
N20      N      0.528266666667     0.260845000000     0.269333333333     0.550798   
N20      N      0.528266666667     0.260845000000     0.602666666667     0.550798   
N20      N      0.528266666667     0.260845000000     0.936000000000     0.550798   
N20      N      0.528266666667     0.760845000000     0.269333333333     0.550798   
N20      N      0.528266666667     0.760845000000     0.602666666667     0.550798   
N20      N      0.528266666667     0.760845000000     0.936000000000     0.550798   
N20      N      0.861600000000     0.260845000000     0.269333333333     0.550798   
N20      N      0.861600000000     0.260845000000     0.602666666667     0.550798   
N20      N      0.861600000000     0.260845000000     0.936000000000     0.550798   
N20      N      0.861600000000     0.760845000000     0.269333333333     0.550798   
N20      N      0.861600000000     0.760845000000     0.602666666667     0.550798   
N20      N      0.861600000000     0.760845000000     0.936000000000     0.550798   
O1       O      0.094766666667     0.301260000000     0.092866666667    -0.185881   
O1       O      0.094766666667     0.301260000000     0.426200000000    -0.185881   
O1       O      0.094766666667     0.301260000000     0.759533333333    -0.185881   
O1       O      0.094766666667     0.801260000000     0.092866666667    -0.185881   
O1       O      0.094766666667     0.801260000000     0.426200000000    -0.185881   
O1       O      0.094766666667     0.801260000000     0.759533333333    -0.185881   
O1       O      0.428100000000     0.301260000000     0.092866666667    -0.185881   
O1       O      0.428100000000     0.301260000000     0.426200000000    -0.185881   
O1       O      0.428100000000     0.301260000000     0.759533333333    -0.185881   
O1       O      0.428100000000     0.801260000000     0.092866666667    -0.185881   
O1       O      0.428100000000     0.801260000000     0.426200000000    -0.185881   
O1       O      0.428100000000     0.801260000000     0.759533333333    -0.185881   
O1       O      0.761433333333     0.301260000000     0.092866666667    -0.185881   
O1       O      0.761433333333     0.301260000000     0.426200000000    -0.185881   
O1       O      0.761433333333     0.301260000000     0.759533333333    -0.185881   
O1       O      0.761433333333     0.801260000000     0.092866666667    -0.185881   
O1       O      0.761433333333     0.801260000000     0.426200000000    -0.185881   
O1       O      0.761433333333     0.801260000000     0.759533333333    -0.185881   
O2       O      0.057000000000     0.264290000000     0.127833333333     0.129769   
O2       O      0.057000000000     0.264290000000     0.461166666667     0.129769   
O2       O      0.057000000000     0.264290000000     0.794500000000     0.129769   
O2       O      0.057000000000     0.764290000000     0.127833333333     0.129769   
O2       O      0.057000000000     0.764290000000     0.461166666667     0.129769   
O2       O      0.057000000000     0.764290000000     0.794500000000     0.129769   
O2       O      0.390333333333     0.264290000000     0.127833333333     0.129769   
O2       O      0.390333333333     0.264290000000     0.461166666667     0.129769   
O2       O      0.390333333333     0.264290000000     0.794500000000     0.129769   
O2       O      0.390333333333     0.764290000000     0.127833333333     0.129769   
O2       O      0.390333333333     0.764290000000     0.461166666667     0.129769   
O2       O      0.390333333333     0.764290000000     0.794500000000     0.129769   
O2       O      0.723666666667     0.264290000000     0.127833333333     0.129769   
O2       O      0.723666666667     0.264290000000     0.461166666667     0.129769   
O2       O      0.723666666667     0.264290000000     0.794500000000     0.129769   
O2       O      0.723666666667     0.764290000000     0.127833333333     0.129769   
O2       O      0.723666666667     0.764290000000     0.461166666667     0.129769   
O2       O      0.723666666667     0.764290000000     0.794500000000     0.129769   
O3       O      0.276333333333     0.235710000000     0.205500000000     0.550789   
O3       O      0.276333333333     0.235710000000     0.538833333333     0.550789   
O3       O      0.276333333333     0.235710000000     0.872166666667     0.550789   
O3       O      0.276333333333     0.735710000000     0.205500000000     0.550789   
O3       O      0.276333333333     0.735710000000     0.538833333333     0.550789   
O3       O      0.276333333333     0.735710000000     0.872166666667     0.550789   
O3       O      0.609666666667     0.235710000000     0.205500000000     0.550789   
O3       O      0.609666666667     0.235710000000     0.538833333333     0.550789   
O3       O      0.609666666667     0.235710000000     0.872166666667     0.550789   
O3       O      0.609666666667     0.735710000000     0.205500000000     0.550789   
O3       O      0.609666666667     0.735710000000     0.538833333333     0.550789   
O3       O      0.609666666667     0.735710000000     0.872166666667     0.550789   
O3       O      0.943000000000     0.235710000000     0.205500000000     0.550789   
O3       O      0.943000000000     0.235710000000     0.538833333333     0.550789   
O3       O      0.943000000000     0.235710000000     0.872166666667     0.550789   
O3       O      0.943000000000     0.735710000000     0.205500000000     0.550789   
O3       O      0.943000000000     0.735710000000     0.538833333333     0.550789   
O3       O      0.943000000000     0.735710000000     0.872166666667     0.550789   
O4       O      0.238566666667     0.198740000000     0.240466666667     0.569659   
O4       O      0.238566666667     0.198740000000     0.573800000000     0.569659   
O4       O      0.238566666667     0.198740000000     0.907133333333     0.569659   
O4       O      0.238566666667     0.698740000000     0.240466666667     0.569659   
O4       O      0.238566666667     0.698740000000     0.573800000000     0.569659   
O4       O      0.238566666667     0.698740000000     0.907133333333     0.569659   
O4       O      0.571900000000     0.198740000000     0.240466666667     0.569659   
O4       O      0.571900000000     0.198740000000     0.573800000000     0.569659   
O4       O      0.571900000000     0.198740000000     0.907133333333     0.569659   
O4       O      0.571900000000     0.698740000000     0.240466666667     0.569659   
O4       O      0.571900000000     0.698740000000     0.573800000000     0.569659   
O4       O      0.571900000000     0.698740000000     0.907133333333     0.569659   
O4       O      0.905233333333     0.198740000000     0.240466666667     0.569659   
O4       O      0.905233333333     0.198740000000     0.573800000000     0.569659   
O4       O      0.905233333333     0.198740000000     0.907133333333     0.569659   
O4       O      0.905233333333     0.698740000000     0.240466666667     0.569659   
O4       O      0.905233333333     0.698740000000     0.573800000000     0.569659   
O4       O      0.905233333333     0.698740000000     0.907133333333     0.569659   
O5       O      0.218700000000     0.277980000000     0.108700000000    -0.113297   
O5       O      0.218700000000     0.277980000000     0.442033333333    -0.113297   
O5       O      0.218700000000     0.277980000000     0.775366666667    -0.113297   
O5       O      0.218700000000     0.777980000000     0.108700000000    -0.113297   
O5       O      0.218700000000     0.777980000000     0.442033333333    -0.113297   
O5       O      0.218700000000     0.777980000000     0.775366666667    -0.113297   
O5       O      0.552033333333     0.277980000000     0.108700000000    -0.113297   
O5       O      0.552033333333     0.277980000000     0.442033333333    -0.113297   
O5       O      0.552033333333     0.277980000000     0.775366666667    -0.113297   
O5       O      0.552033333333     0.777980000000     0.108700000000    -0.113297   
O5       O      0.552033333333     0.777980000000     0.442033333333    -0.113297   
O5       O      0.552033333333     0.777980000000     0.775366666667    -0.113297   
O5       O      0.885366666667     0.277980000000     0.108700000000    -0.113297   
O5       O      0.885366666667     0.277980000000     0.442033333333    -0.113297   
O5       O      0.885366666667     0.277980000000     0.775366666667    -0.113297   
O5       O      0.885366666667     0.777980000000     0.108700000000    -0.113297   
O5       O      0.885366666667     0.777980000000     0.442033333333    -0.113297   
O5       O      0.885366666667     0.777980000000     0.775366666667    -0.113297   
O6       O      0.114633333333     0.222020000000     0.224633333333     0.290521   
O6       O      0.114633333333     0.222020000000     0.557966666667     0.290521   
O6       O      0.114633333333     0.222020000000     0.891300000000     0.290521   
O6       O      0.114633333333     0.722020000000     0.224633333333     0.290521   
O6       O      0.114633333333     0.722020000000     0.557966666667     0.290521   
O6       O      0.114633333333     0.722020000000     0.891300000000     0.290521   
O6       O      0.447966666667     0.222020000000     0.224633333333     0.290521   
O6       O      0.447966666667     0.222020000000     0.557966666667     0.290521   
O6       O      0.447966666667     0.222020000000     0.891300000000     0.290521   
O6       O      0.447966666667     0.722020000000     0.224633333333     0.290521   
O6       O      0.447966666667     0.722020000000     0.557966666667     0.290521   
O6       O      0.447966666667     0.722020000000     0.891300000000     0.290521   
O6       O      0.781300000000     0.222020000000     0.224633333333     0.290521   
O6       O      0.781300000000     0.222020000000     0.557966666667     0.290521   
O6       O      0.781300000000     0.222020000000     0.891300000000     0.290521   
O6       O      0.781300000000     0.722020000000     0.224633333333     0.290521   
O6       O      0.781300000000     0.722020000000     0.557966666667     0.290521   
O6       O      0.781300000000     0.722020000000     0.891300000000     0.290521   
O7       O      0.189300000000     0.331100000000     0.088300000000     0.010234   
O7       O      0.189300000000     0.331100000000     0.421633333333     0.010234   
O7       O      0.189300000000     0.331100000000     0.754966666667     0.010234   
O7       O      0.189300000000     0.831100000000     0.088300000000     0.010234   
O7       O      0.189300000000     0.831100000000     0.421633333333     0.010234   
O7       O      0.189300000000     0.831100000000     0.754966666667     0.010234   
O7       O      0.522633333333     0.331100000000     0.088300000000     0.010234   
O7       O      0.522633333333     0.331100000000     0.421633333333     0.010234   
O7       O      0.522633333333     0.331100000000     0.754966666667     0.010234   
O7       O      0.522633333333     0.831100000000     0.088300000000     0.010234   
O7       O      0.522633333333     0.831100000000     0.421633333333     0.010234   
O7       O      0.522633333333     0.831100000000     0.754966666667     0.010234   
O7       O      0.855966666667     0.331100000000     0.088300000000     0.010234   
O7       O      0.855966666667     0.331100000000     0.421633333333     0.010234   
O7       O      0.855966666667     0.331100000000     0.754966666667     0.010234   
O7       O      0.855966666667     0.831100000000     0.088300000000     0.010234   
O7       O      0.855966666667     0.831100000000     0.421633333333     0.010234   
O7       O      0.855966666667     0.831100000000     0.754966666667     0.010234   
O8       O      0.281300000000     0.027980000000     0.057966666667    -0.002072   
O8       O      0.281300000000     0.027980000000     0.391300000000    -0.002072   
O8       O      0.281300000000     0.027980000000     0.724633333333    -0.002072   
O8       O      0.281300000000     0.527980000000     0.057966666667    -0.002072   
O8       O      0.281300000000     0.527980000000     0.391300000000    -0.002072   
O8       O      0.281300000000     0.527980000000     0.724633333333    -0.002072   
O8       O      0.614633333333     0.027980000000     0.057966666667    -0.002072   
O8       O      0.614633333333     0.027980000000     0.391300000000    -0.002072   
O8       O      0.614633333333     0.027980000000     0.724633333333    -0.002072   
O8       O      0.614633333333     0.527980000000     0.057966666667    -0.002072   
O8       O      0.614633333333     0.527980000000     0.391300000000    -0.002072   
O8       O      0.614633333333     0.527980000000     0.724633333333    -0.002072   
O8       O      0.947966666667     0.027980000000     0.057966666667    -0.002072   
O8       O      0.947966666667     0.027980000000     0.391300000000    -0.002072   
O8       O      0.947966666667     0.027980000000     0.724633333333    -0.002072   
O8       O      0.947966666667     0.527980000000     0.057966666667    -0.002072   
O8       O      0.947966666667     0.527980000000     0.391300000000    -0.002072   
O8       O      0.947966666667     0.527980000000     0.724633333333    -0.002072   
O9       O      0.310700000000     0.081100000000     0.078366666667    -0.207185   
O9       O      0.310700000000     0.081100000000     0.411700000000    -0.207185   
O9       O      0.310700000000     0.081100000000     0.745033333333    -0.207185   
O9       O      0.310700000000     0.581100000000     0.078366666667    -0.207185   
O9       O      0.310700000000     0.581100000000     0.411700000000    -0.207185   
O9       O      0.310700000000     0.581100000000     0.745033333333    -0.207185   
O9       O      0.644033333333     0.081100000000     0.078366666667    -0.207185   
O9       O      0.644033333333     0.081100000000     0.411700000000    -0.207185   
O9       O      0.644033333333     0.081100000000     0.745033333333    -0.207185   
O9       O      0.644033333333     0.581100000000     0.078366666667    -0.207185   
O9       O      0.644033333333     0.581100000000     0.411700000000    -0.207185   
O9       O      0.644033333333     0.581100000000     0.745033333333    -0.207185   
O9       O      0.977366666667     0.081100000000     0.078366666667    -0.207185   
O9       O      0.977366666667     0.081100000000     0.411700000000    -0.207185   
O9       O      0.977366666667     0.081100000000     0.745033333333    -0.207185   
O9       O      0.977366666667     0.581100000000     0.078366666667    -0.207185   
O9       O      0.977366666667     0.581100000000     0.411700000000    -0.207185   
O9       O      0.977366666667     0.581100000000     0.745033333333    -0.207185   
O10      O      0.223666666667     0.485710000000     0.294500000000     0.190165   
O10      O      0.223666666667     0.485710000000     0.627833333333     0.190165   
O10      O      0.223666666667     0.485710000000     0.961166666667     0.190165   
O10      O      0.223666666667     0.985710000000     0.294500000000     0.190165   
O10      O      0.223666666667     0.985710000000     0.627833333333     0.190165   
O10      O      0.223666666667     0.985710000000     0.961166666667     0.190165   
O10      O      0.557000000000     0.485710000000     0.294500000000     0.190165   
O10      O      0.557000000000     0.485710000000     0.627833333333     0.190165   
O10      O      0.557000000000     0.485710000000     0.961166666667     0.190165   
O10      O      0.557000000000     0.985710000000     0.294500000000     0.190165   
O10      O      0.557000000000     0.985710000000     0.627833333333     0.190165   
O10      O      0.557000000000     0.985710000000     0.961166666667     0.190165   
O10      O      0.890333333333     0.485710000000     0.294500000000     0.190165   
O10      O      0.890333333333     0.485710000000     0.627833333333     0.190165   
O10      O      0.890333333333     0.485710000000     0.961166666667     0.190165   
O10      O      0.890333333333     0.985710000000     0.294500000000     0.190165   
O10      O      0.890333333333     0.985710000000     0.627833333333     0.190165   
O10      O      0.890333333333     0.985710000000     0.961166666667     0.190165   
O11      O      0.052033333333     0.472020000000     0.275366666667    -0.211023   
O11      O      0.052033333333     0.472020000000     0.608700000000    -0.211023   
O11      O      0.052033333333     0.472020000000     0.942033333333    -0.211023   
O11      O      0.052033333333     0.972020000000     0.275366666667    -0.211023   
O11      O      0.052033333333     0.972020000000     0.608700000000    -0.211023   
O11      O      0.052033333333     0.972020000000     0.942033333333    -0.211023   
O11      O      0.385366666667     0.472020000000     0.275366666667    -0.211023   
O11      O      0.385366666667     0.472020000000     0.608700000000    -0.211023   
O11      O      0.385366666667     0.472020000000     0.942033333333    -0.211023   
O11      O      0.385366666667     0.972020000000     0.275366666667    -0.211023   
O11      O      0.385366666667     0.972020000000     0.608700000000    -0.211023   
O11      O      0.385366666667     0.972020000000     0.942033333333    -0.211023   
O11      O      0.718700000000     0.472020000000     0.275366666667    -0.211023   
O11      O      0.718700000000     0.472020000000     0.608700000000    -0.211023   
O11      O      0.718700000000     0.472020000000     0.942033333333    -0.211023   
O11      O      0.718700000000     0.972020000000     0.275366666667    -0.211023   
O11      O      0.718700000000     0.972020000000     0.608700000000    -0.211023   
O11      O      0.718700000000     0.972020000000     0.942033333333    -0.211023   
O12      O      0.022633333333     0.418900000000     0.254966666667     0.395376   
O12      O      0.022633333333     0.418900000000     0.588300000000     0.395376   
O12      O      0.022633333333     0.418900000000     0.921633333333     0.395376   
O12      O      0.022633333333     0.918900000000     0.254966666667     0.395376   
O12      O      0.022633333333     0.918900000000     0.588300000000     0.395376   
O12      O      0.022633333333     0.918900000000     0.921633333333     0.395376   
O12      O      0.355966666667     0.418900000000     0.254966666667     0.395376   
O12      O      0.355966666667     0.418900000000     0.588300000000     0.395376   
O12      O      0.355966666667     0.418900000000     0.921633333333     0.395376   
O12      O      0.355966666667     0.918900000000     0.254966666667     0.395376   
O12      O      0.355966666667     0.918900000000     0.588300000000     0.395376   
O12      O      0.355966666667     0.918900000000     0.921633333333     0.395376   
O12      O      0.689300000000     0.418900000000     0.254966666667     0.395376   
O12      O      0.689300000000     0.418900000000     0.588300000000     0.395376   
O12      O      0.689300000000     0.418900000000     0.921633333333     0.395376   
O12      O      0.689300000000     0.918900000000     0.254966666667     0.395376   
O12      O      0.689300000000     0.918900000000     0.588300000000     0.395376   
O12      O      0.689300000000     0.918900000000     0.921633333333     0.395376   
O13      O      0.071900000000     0.051260000000     0.073800000000     0.178317   
O13      O      0.071900000000     0.051260000000     0.407133333333     0.178317   
O13      O      0.071900000000     0.051260000000     0.740466666667     0.178317   
O13      O      0.071900000000     0.551260000000     0.073800000000     0.178317   
O13      O      0.071900000000     0.551260000000     0.407133333333     0.178317   
O13      O      0.071900000000     0.551260000000     0.740466666667     0.178317   
O13      O      0.405233333333     0.051260000000     0.073800000000     0.178317   
O13      O      0.405233333333     0.051260000000     0.407133333333     0.178317   
O13      O      0.405233333333     0.051260000000     0.740466666667     0.178317   
O13      O      0.405233333333     0.551260000000     0.073800000000     0.178317   
O13      O      0.405233333333     0.551260000000     0.407133333333     0.178317   
O13      O      0.405233333333     0.551260000000     0.740466666667     0.178317   
O13      O      0.738566666667     0.051260000000     0.073800000000     0.178317   
O13      O      0.738566666667     0.051260000000     0.407133333333     0.178317   
O13      O      0.738566666667     0.051260000000     0.740466666667     0.178317   
O13      O      0.738566666667     0.551260000000     0.073800000000     0.178317   
O13      O      0.738566666667     0.551260000000     0.407133333333     0.178317   
O13      O      0.738566666667     0.551260000000     0.740466666667     0.178317   
O14      O      0.109666666667     0.014290000000     0.038833333333    -0.55218    
O14      O      0.109666666667     0.014290000000     0.372166666667    -0.55218    
O14      O      0.109666666667     0.014290000000     0.705500000000    -0.55218    
O14      O      0.109666666667     0.514290000000     0.038833333333    -0.55218    
O14      O      0.109666666667     0.514290000000     0.372166666667    -0.55218    
O14      O      0.109666666667     0.514290000000     0.705500000000    -0.55218    
O14      O      0.443000000000     0.014290000000     0.038833333333    -0.55218    
O14      O      0.443000000000     0.014290000000     0.372166666667    -0.55218    
O14      O      0.443000000000     0.014290000000     0.705500000000    -0.55218    
O14      O      0.443000000000     0.514290000000     0.038833333333    -0.55218    
O14      O      0.443000000000     0.514290000000     0.372166666667    -0.55218    
O14      O      0.443000000000     0.514290000000     0.705500000000    -0.55218    
O14      O      0.776333333333     0.014290000000     0.038833333333    -0.55218    
O14      O      0.776333333333     0.014290000000     0.372166666667    -0.55218    
O14      O      0.776333333333     0.014290000000     0.705500000000    -0.55218    
O14      O      0.776333333333     0.514290000000     0.038833333333    -0.55218    
O14      O      0.776333333333     0.514290000000     0.372166666667    -0.55218    
O14      O      0.776333333333     0.514290000000     0.705500000000    -0.55218    
O15      O      0.144033333333     0.168900000000     0.245033333333    -0.552186   
O15      O      0.144033333333     0.168900000000     0.578366666667    -0.552186   
O15      O      0.144033333333     0.168900000000     0.911700000000    -0.552186   
O15      O      0.144033333333     0.668900000000     0.245033333333    -0.552186   
O15      O      0.144033333333     0.668900000000     0.578366666667    -0.552186   
O15      O      0.144033333333     0.668900000000     0.911700000000    -0.552186   
O15      O      0.477366666667     0.168900000000     0.245033333333    -0.552186   
O15      O      0.477366666667     0.168900000000     0.578366666667    -0.552186   
O15      O      0.477366666667     0.168900000000     0.911700000000    -0.552186   
O15      O      0.477366666667     0.668900000000     0.245033333333    -0.552186   
O15      O      0.477366666667     0.668900000000     0.578366666667    -0.552186   
O15      O      0.477366666667     0.668900000000     0.911700000000    -0.552186   
O15      O      0.810700000000     0.168900000000     0.245033333333    -0.552186   
O15      O      0.810700000000     0.168900000000     0.578366666667    -0.552186   
O15      O      0.810700000000     0.168900000000     0.911700000000    -0.552186   
O15      O      0.810700000000     0.668900000000     0.245033333333    -0.552186   
O15      O      0.810700000000     0.668900000000     0.578366666667    -0.552186   
O15      O      0.810700000000     0.668900000000     0.911700000000    -0.552186   
O16      O      0.261433333333     0.448740000000     0.259533333333     0.178321   
O16      O      0.261433333333     0.448740000000     0.592866666667     0.178321   
O16      O      0.261433333333     0.448740000000     0.926200000000     0.178321   
O16      O      0.261433333333     0.948740000000     0.259533333333     0.178321   
O16      O      0.261433333333     0.948740000000     0.592866666667     0.178321   
O16      O      0.261433333333     0.948740000000     0.926200000000     0.178321   
O16      O      0.594766666667     0.448740000000     0.259533333333     0.178321   
O16      O      0.594766666667     0.448740000000     0.592866666667     0.178321   
O16      O      0.594766666667     0.448740000000     0.926200000000     0.178321   
O16      O      0.594766666667     0.948740000000     0.259533333333     0.178321   
O16      O      0.594766666667     0.948740000000     0.592866666667     0.178321   
O16      O      0.594766666667     0.948740000000     0.926200000000     0.178321   
O16      O      0.928100000000     0.448740000000     0.259533333333     0.178321   
O16      O      0.928100000000     0.448740000000     0.592866666667     0.178321   
O16      O      0.928100000000     0.448740000000     0.926200000000     0.178321   
O16      O      0.928100000000     0.948740000000     0.259533333333     0.178321   
O16      O      0.928100000000     0.948740000000     0.592866666667     0.178321   
O16      O      0.928100000000     0.948740000000     0.926200000000     0.178321   


