data_OFAWEZ_clean

_audit_creation_method RASPA-1.0
_audit_creation_date 2025-9-8
_audit_author_name ''

_cell_length_a    33.6196
_cell_length_b    33.6196
_cell_length_c    50.4294
_cell_angle_alpha 63.1351
_cell_angle_beta  84.4783
_cell_angle_gamma 116.865
_cell_volume      42003.3

_symmetry_cell_setting          triclinic
_symmetry_space_group_name_Hall 'P 1'
_symmetry_space_group_name_H-M  'P 1'
_symmetry_Int_Tables_number     1

_symmetry_equiv_pos_as_xyz 'x,y,z'

loop_
_atom_site_label
_atom_site_type_symbol
_atom_site_fract_x
_atom_site_fract_y
_atom_site_fract_z
_atom_site_charge
Hf       Hf     0.304135000000     0.000000000000     0.130576666667     1.499      
Hf       Hf     0.195865000000     0.000000000000     0.202756666667     1.484      
Hf       Hf     0.200120000000     0.000000000000     0.133410000000     1.37       
Hf       Hf     0.299880000000     0.000000000000     0.199923333333     1.368      
Hf       Hf     0.200120000000     0.400240000000     0.199920000000     1.372      
Hf       Hf     0.299880000000     0.099760000000     0.133413333333     1.372      
H        H      0.322100000000     0.000000000000     0.042466666667     0.03       
H        H      0.327950000000     0.000000000000     0.330100000000     0.059      
H        H      0.203200000000     0.000000000000     0.044400000000     0.03       
H        H      0.436300000000     0.000000000000     0.118600000000     0.023      
H        H      0.004850000000     0.000000000000     0.114700000000     0.081      
H        H      0.433400000000     0.000000000000     0.197866666667     0.033      
H        H      0.322100000000     0.385800000000     0.118600000000     0.037      
H        H      0.327950000000     0.323100000000     0.114700000000     0.061      
H        H      0.203200000000     0.269800000000     0.197866666667     0.044      
H        H      0.436300000000     0.114200000000     0.042466666667     0.045      
H        H      0.004850000000     0.176900000000     0.330100000000     0.05       
H        H      0.433400000000     0.230200000000     0.044400000000     0.053      
H        H      0.063700000000     0.385800000000     0.290866666667     0.024      
H        H      0.495150000000     0.323100000000     0.003233333333     0.078      
H        H      0.066600000000     0.269800000000     0.288933333333     0.036      
H        H      0.177900000000     0.114200000000     0.214733333333     0.037      
H        H      0.172050000000     0.176900000000     0.218633333333     0.062      
H        H      0.296800000000     0.230200000000     0.135466666667     0.044      
H        H      0.063700000000     0.000000000000     0.214733333333     0.055      
H        H      0.495150000000     0.000000000000     0.218633333333     0.05       
H        H      0.066600000000     0.000000000000     0.135466666667     0.062      
H        H      0.177900000000     0.000000000000     0.290866666667     0.077      
H        H      0.172050000000     0.000000000000     0.003233333333     0.031      
H        H      0.296800000000     0.000000000000     0.288933333333     0.048      
C        C      0.259950000000     0.000000000000     0.078366666667     0.417      
C        C      0.262300000000     0.000000000000     0.048533333333    -0.132      
C        C      0.299050000000     0.000000000000     0.033633333333     0.046      
C        C      0.302750000000     0.000000000000     0.006100000000    -0.113      
C        C      0.268750000000     0.000000000000     0.325633333333     0.066      
C        C      0.228300000000     0.000000000000     0.034866666667     0.015      
C        C      0.382450000000     0.000000000000     0.160033333333     0.409      
C        C      0.427200000000     0.000000000000     0.158466666667    -0.139      
C        C      0.449550000000     0.000000000000     0.133966666667     0.072      
C        C      0.490850000000     0.000000000000     0.131500000000    -0.146      
C        C      0.011550000000     0.000000000000     0.154166666667     0.061      
C        C      0.447700000000     0.000000000000     0.181133333333     0.011      
C        C      0.259950000000     0.377500000000     0.160033333333     0.396      
C        C      0.262300000000     0.335100000000     0.158466666667    -0.103      
C        C      0.299050000000     0.349500000000     0.133966666667     0.026      
C        C      0.302750000000     0.311900000000     0.131500000000    -0.099      
C        C      0.268750000000     0.257200000000     0.154166666667     0.026      
C        C      0.228300000000     0.280600000000     0.181133333333    -0.031      
C        C      0.382450000000     0.122500000000     0.078366666667     0.39       
C        C      0.427200000000     0.164900000000     0.048533333333    -0.085      
C        C      0.449550000000     0.150500000000     0.033633333333     0.004      
C        C      0.490850000000     0.188100000000     0.006100000000    -0.07       
C        C      0.011550000000     0.242800000000     0.325633333333    -0.007      
C        C      0.447700000000     0.219400000000     0.034866666667    -0.057      
C        C      0.117550000000     0.377500000000     0.254966666667     0.403      
C        C      0.072800000000     0.335100000000     0.284800000000    -0.123      
C        C      0.050450000000     0.349500000000     0.299700000000     0.053      
C        C      0.009150000000     0.311900000000     0.327233333333    -0.141      
C        C      0.488450000000     0.257200000000     0.007700000000     0.061      
C        C      0.052300000000     0.280600000000     0.298466666667    -0.007      
C        C      0.240050000000     0.122500000000     0.173300000000     0.396      
C        C      0.237700000000     0.164900000000     0.174866666667    -0.102      
C        C      0.200950000000     0.150500000000     0.199366666667     0.026      
C        C      0.197250000000     0.188100000000     0.201833333333    -0.099      
C        C      0.231250000000     0.242800000000     0.179166666667     0.026      
C        C      0.271700000000     0.219400000000     0.152200000000    -0.031      
C        C      0.117550000000     0.000000000000     0.173300000000     0.4        
C        C      0.072800000000     0.000000000000     0.174866666667    -0.085      
C        C      0.050450000000     0.000000000000     0.199366666667    -0.011      
C        C      0.009150000000     0.000000000000     0.201833333333    -0.071      
C        C      0.488450000000     0.000000000000     0.179166666667    -0.011      
C        C      0.052300000000     0.000000000000     0.152200000000    -0.068      
C        C      0.240050000000     0.000000000000     0.254966666667     0.358      
C        C      0.237700000000     0.000000000000     0.284800000000    -0.039      
C        C      0.200950000000     0.000000000000     0.299700000000    -0.076      
C        C      0.197250000000     0.000000000000     0.327233333333    -0.012      
C        C      0.231250000000     0.000000000000     0.007700000000    -0.034      
C        C      0.271700000000     0.000000000000     0.298466666667    -0.063      
O        O      0.291150000000     0.000000000000     0.089033333333    -0.412      
O        O      0.224800000000     0.000000000000     0.090800000000    -0.441      
O        O      0.366450000000     0.000000000000     0.139233333333    -0.409      
O        O      0.363800000000     0.000000000000     0.183466666667    -0.439      
O        O      0.291150000000     0.424700000000     0.139233333333    -0.404      
O        O      0.224800000000     0.361000000000     0.183466666667    -0.434      
O        O      0.366450000000     0.075300000000     0.089033333333    -0.4        
O        O      0.363800000000     0.139000000000     0.090800000000    -0.432      
O        O      0.133550000000     0.424700000000     0.244300000000    -0.408      
O        O      0.136200000000     0.361000000000     0.242533333333    -0.436      
O        O      0.208850000000     0.075300000000     0.194100000000    -0.402      
O        O      0.275200000000     0.139000000000     0.149866666667    -0.434      
O        O      0.133550000000     0.000000000000     0.194100000000    -0.4        
O        O      0.136200000000     0.000000000000     0.149866666667    -0.439      
O        O      0.208850000000     0.000000000000     0.244300000000    -0.385      
O        O      0.275200000000     0.000000000000     0.242533333333    -0.427      
O        O      0.226000000000     0.449800000000     0.149200000000    -0.58       
O        O      0.326400000000     0.050200000000     0.149200000000    -0.576      
O        O      0.276200000000     0.449800000000     0.182666666667    -0.58       
O        O      0.276200000000     0.050200000000     0.115733333333    -0.577      
O        O      0.173600000000     0.449800000000     0.184133333333    -0.579      
O        O      0.274000000000     0.050200000000     0.184133333333    -0.574      
O        O      0.223800000000     0.050200000000     0.150666666667    -0.575      
O        O      0.223800000000     0.449800000000     0.217600000000    -0.579      
Hf       Hf     0.304135000000     0.000000000000     0.463910000000     1.499      
Hf       Hf     0.195865000000     0.000000000000     0.536090000000     1.484      
Hf       Hf     0.200120000000     0.000000000000     0.466743333333     1.37       
Hf       Hf     0.299880000000     0.000000000000     0.533256666667     1.368      
Hf       Hf     0.200120000000     0.400240000000     0.533253333333     1.372      
Hf       Hf     0.299880000000     0.099760000000     0.466746666667     1.372      
H        H      0.322100000000     0.000000000000     0.375800000000     0.03       
H        H      0.327950000000     0.000000000000     0.663433333333     0.059      
H        H      0.203200000000     0.000000000000     0.377733333333     0.03       
H        H      0.436300000000     0.000000000000     0.451933333333     0.023      
H        H      0.004850000000     0.000000000000     0.448033333333     0.081      
H        H      0.433400000000     0.000000000000     0.531200000000     0.033      
H        H      0.322100000000     0.385800000000     0.451933333333     0.037      
H        H      0.327950000000     0.323100000000     0.448033333333     0.061      
H        H      0.203200000000     0.269800000000     0.531200000000     0.044      
H        H      0.436300000000     0.114200000000     0.375800000000     0.045      
H        H      0.004850000000     0.176900000000     0.663433333333     0.05       
H        H      0.433400000000     0.230200000000     0.377733333333     0.053      
H        H      0.063700000000     0.385800000000     0.624200000000     0.024      
H        H      0.495150000000     0.323100000000     0.336566666667     0.078      
H        H      0.066600000000     0.269800000000     0.622266666667     0.036      
H        H      0.177900000000     0.114200000000     0.548066666667     0.037      
H        H      0.172050000000     0.176900000000     0.551966666667     0.062      
H        H      0.296800000000     0.230200000000     0.468800000000     0.044      
H        H      0.063700000000     0.000000000000     0.548066666667     0.055      
H        H      0.495150000000     0.000000000000     0.551966666667     0.05       
H        H      0.066600000000     0.000000000000     0.468800000000     0.062      
H        H      0.177900000000     0.000000000000     0.624200000000     0.077      
H        H      0.172050000000     0.000000000000     0.336566666667     0.031      
H        H      0.296800000000     0.000000000000     0.622266666667     0.048      
C        C      0.259950000000     0.000000000000     0.411700000000     0.417      
C        C      0.262300000000     0.000000000000     0.381866666667    -0.132      
C        C      0.299050000000     0.000000000000     0.366966666667     0.046      
C        C      0.302750000000     0.000000000000     0.339433333333    -0.113      
C        C      0.268750000000     0.000000000000     0.658966666667     0.066      
C        C      0.228300000000     0.000000000000     0.368200000000     0.015      
C        C      0.382450000000     0.000000000000     0.493366666667     0.409      
C        C      0.427200000000     0.000000000000     0.491800000000    -0.139      
C        C      0.449550000000     0.000000000000     0.467300000000     0.072      
C        C      0.490850000000     0.000000000000     0.464833333333    -0.146      
C        C      0.011550000000     0.000000000000     0.487500000000     0.061      
C        C      0.447700000000     0.000000000000     0.514466666667     0.011      
C        C      0.259950000000     0.377500000000     0.493366666667     0.396      
C        C      0.262300000000     0.335100000000     0.491800000000    -0.103      
C        C      0.299050000000     0.349500000000     0.467300000000     0.026      
C        C      0.302750000000     0.311900000000     0.464833333333    -0.099      
C        C      0.268750000000     0.257200000000     0.487500000000     0.026      
C        C      0.228300000000     0.280600000000     0.514466666667    -0.031      
C        C      0.382450000000     0.122500000000     0.411700000000     0.39       
C        C      0.427200000000     0.164900000000     0.381866666667    -0.085      
C        C      0.449550000000     0.150500000000     0.366966666667     0.004      
C        C      0.490850000000     0.188100000000     0.339433333333    -0.07       
C        C      0.011550000000     0.242800000000     0.658966666667    -0.007      
C        C      0.447700000000     0.219400000000     0.368200000000    -0.057      
C        C      0.117550000000     0.377500000000     0.588300000000     0.403      
C        C      0.072800000000     0.335100000000     0.618133333333    -0.123      
C        C      0.050450000000     0.349500000000     0.633033333333     0.053      
C        C      0.009150000000     0.311900000000     0.660566666667    -0.141      
C        C      0.488450000000     0.257200000000     0.341033333333     0.061      
C        C      0.052300000000     0.280600000000     0.631800000000    -0.007      
C        C      0.240050000000     0.122500000000     0.506633333333     0.396      
C        C      0.237700000000     0.164900000000     0.508200000000    -0.102      
C        C      0.200950000000     0.150500000000     0.532700000000     0.026      
C        C      0.197250000000     0.188100000000     0.535166666667    -0.099      
C        C      0.231250000000     0.242800000000     0.512500000000     0.026      
C        C      0.271700000000     0.219400000000     0.485533333333    -0.031      
C        C      0.117550000000     0.000000000000     0.506633333333     0.4        
C        C      0.072800000000     0.000000000000     0.508200000000    -0.085      
C        C      0.050450000000     0.000000000000     0.532700000000    -0.011      
C        C      0.009150000000     0.000000000000     0.535166666667    -0.071      
C        C      0.488450000000     0.000000000000     0.512500000000    -0.011      
C        C      0.052300000000     0.000000000000     0.485533333333    -0.068      
C        C      0.240050000000     0.000000000000     0.588300000000     0.358      
C        C      0.237700000000     0.000000000000     0.618133333333    -0.039      
C        C      0.200950000000     0.000000000000     0.633033333333    -0.076      
C        C      0.197250000000     0.000000000000     0.660566666667    -0.012      
C        C      0.231250000000     0.000000000000     0.341033333333    -0.034      
C        C      0.271700000000     0.000000000000     0.631800000000    -0.063      
O        O      0.291150000000     0.000000000000     0.422366666667    -0.412      
O        O      0.224800000000     0.000000000000     0.424133333333    -0.441      
O        O      0.366450000000     0.000000000000     0.472566666667    -0.409      
O        O      0.363800000000     0.000000000000     0.516800000000    -0.439      
O        O      0.291150000000     0.424700000000     0.472566666667    -0.404      
O        O      0.224800000000     0.361000000000     0.516800000000    -0.434      
O        O      0.366450000000     0.075300000000     0.422366666667    -0.4        
O        O      0.363800000000     0.139000000000     0.424133333333    -0.432      
O        O      0.133550000000     0.424700000000     0.577633333333    -0.408      
O        O      0.136200000000     0.361000000000     0.575866666667    -0.436      
O        O      0.208850000000     0.075300000000     0.527433333333    -0.402      
O        O      0.275200000000     0.139000000000     0.483200000000    -0.434      
O        O      0.133550000000     0.000000000000     0.527433333333    -0.4        
O        O      0.136200000000     0.000000000000     0.483200000000    -0.439      
O        O      0.208850000000     0.000000000000     0.577633333333    -0.385      
O        O      0.275200000000     0.000000000000     0.575866666667    -0.427      
O        O      0.226000000000     0.449800000000     0.482533333333    -0.58       
O        O      0.326400000000     0.050200000000     0.482533333333    -0.576      
O        O      0.276200000000     0.449800000000     0.516000000000    -0.58       
O        O      0.276200000000     0.050200000000     0.449066666667    -0.577      
O        O      0.173600000000     0.449800000000     0.517466666667    -0.579      
O        O      0.274000000000     0.050200000000     0.517466666667    -0.574      
O        O      0.223800000000     0.050200000000     0.484000000000    -0.575      
O        O      0.223800000000     0.449800000000     0.550933333333    -0.579      
Hf       Hf     0.304135000000     0.000000000000     0.797243333333     1.499      
Hf       Hf     0.195865000000     0.000000000000     0.869423333333     1.484      
Hf       Hf     0.200120000000     0.000000000000     0.800076666667     1.37       
Hf       Hf     0.299880000000     0.000000000000     0.866590000000     1.368      
Hf       Hf     0.200120000000     0.400240000000     0.866586666667     1.372      
Hf       Hf     0.299880000000     0.099760000000     0.800080000000     1.372      
H        H      0.322100000000     0.000000000000     0.709133333333     0.03       
H        H      0.327950000000     0.000000000000     0.996766666667     0.059      
H        H      0.203200000000     0.000000000000     0.711066666667     0.03       
H        H      0.436300000000     0.000000000000     0.785266666667     0.023      
H        H      0.004850000000     0.000000000000     0.781366666667     0.081      
H        H      0.433400000000     0.000000000000     0.864533333333     0.033      
H        H      0.322100000000     0.385800000000     0.785266666667     0.037      
H        H      0.327950000000     0.323100000000     0.781366666667     0.061      
H        H      0.203200000000     0.269800000000     0.864533333333     0.044      
H        H      0.436300000000     0.114200000000     0.709133333333     0.045      
H        H      0.004850000000     0.176900000000     0.996766666667     0.05       
H        H      0.433400000000     0.230200000000     0.711066666667     0.053      
H        H      0.063700000000     0.385800000000     0.957533333333     0.024      
H        H      0.495150000000     0.323100000000     0.669900000000     0.078      
H        H      0.066600000000     0.269800000000     0.955600000000     0.036      
H        H      0.177900000000     0.114200000000     0.881400000000     0.037      
H        H      0.172050000000     0.176900000000     0.885300000000     0.062      
H        H      0.296800000000     0.230200000000     0.802133333333     0.044      
H        H      0.063700000000     0.000000000000     0.881400000000     0.055      
H        H      0.495150000000     0.000000000000     0.885300000000     0.05       
H        H      0.066600000000     0.000000000000     0.802133333333     0.062      
H        H      0.177900000000     0.000000000000     0.957533333333     0.077      
H        H      0.172050000000     0.000000000000     0.669900000000     0.031      
H        H      0.296800000000     0.000000000000     0.955600000000     0.048      
C        C      0.259950000000     0.000000000000     0.745033333333     0.417      
C        C      0.262300000000     0.000000000000     0.715200000000    -0.132      
C        C      0.299050000000     0.000000000000     0.700300000000     0.046      
C        C      0.302750000000     0.000000000000     0.672766666667    -0.113      
C        C      0.268750000000     0.000000000000     0.992300000000     0.066      
C        C      0.228300000000     0.000000000000     0.701533333333     0.015      
C        C      0.382450000000     0.000000000000     0.826700000000     0.409      
C        C      0.427200000000     0.000000000000     0.825133333333    -0.139      
C        C      0.449550000000     0.000000000000     0.800633333333     0.072      
C        C      0.490850000000     0.000000000000     0.798166666667    -0.146      
C        C      0.011550000000     0.000000000000     0.820833333333     0.061      
C        C      0.447700000000     0.000000000000     0.847800000000     0.011      
C        C      0.259950000000     0.377500000000     0.826700000000     0.396      
C        C      0.262300000000     0.335100000000     0.825133333333    -0.103      
C        C      0.299050000000     0.349500000000     0.800633333333     0.026      
C        C      0.302750000000     0.311900000000     0.798166666667    -0.099      
C        C      0.268750000000     0.257200000000     0.820833333333     0.026      
C        C      0.228300000000     0.280600000000     0.847800000000    -0.031      
C        C      0.382450000000     0.122500000000     0.745033333333     0.39       
C        C      0.427200000000     0.164900000000     0.715200000000    -0.085      
C        C      0.449550000000     0.150500000000     0.700300000000     0.004      
C        C      0.490850000000     0.188100000000     0.672766666667    -0.07       
C        C      0.011550000000     0.242800000000     0.992300000000    -0.007      
C        C      0.447700000000     0.219400000000     0.701533333333    -0.057      
C        C      0.117550000000     0.377500000000     0.921633333333     0.403      
C        C      0.072800000000     0.335100000000     0.951466666667    -0.123      
C        C      0.050450000000     0.349500000000     0.966366666667     0.053      
C        C      0.009150000000     0.311900000000     0.993900000000    -0.141      
C        C      0.488450000000     0.257200000000     0.674366666667     0.061      
C        C      0.052300000000     0.280600000000     0.965133333333    -0.007      
C        C      0.240050000000     0.122500000000     0.839966666667     0.396      
C        C      0.237700000000     0.164900000000     0.841533333333    -0.102      
C        C      0.200950000000     0.150500000000     0.866033333333     0.026      
C        C      0.197250000000     0.188100000000     0.868500000000    -0.099      
C        C      0.231250000000     0.242800000000     0.845833333333     0.026      
C        C      0.271700000000     0.219400000000     0.818866666667    -0.031      
C        C      0.117550000000     0.000000000000     0.839966666667     0.4        
C        C      0.072800000000     0.000000000000     0.841533333333    -0.085      
C        C      0.050450000000     0.000000000000     0.866033333333    -0.011      
C        C      0.009150000000     0.000000000000     0.868500000000    -0.071      
C        C      0.488450000000     0.000000000000     0.845833333333    -0.011      
C        C      0.052300000000     0.000000000000     0.818866666667    -0.068      
C        C      0.240050000000     0.000000000000     0.921633333333     0.358      
C        C      0.237700000000     0.000000000000     0.951466666667    -0.039      
C        C      0.200950000000     0.000000000000     0.966366666667    -0.076      
C        C      0.197250000000     0.000000000000     0.993900000000    -0.012      
C        C      0.231250000000     0.000000000000     0.674366666667    -0.034      
C        C      0.271700000000     0.000000000000     0.965133333333    -0.063      
O        O      0.291150000000     0.000000000000     0.755700000000    -0.412      
O        O      0.224800000000     0.000000000000     0.757466666667    -0.441      
O        O      0.366450000000     0.000000000000     0.805900000000    -0.409      
O        O      0.363800000000     0.000000000000     0.850133333333    -0.439      
O        O      0.291150000000     0.424700000000     0.805900000000    -0.404      
O        O      0.224800000000     0.361000000000     0.850133333333    -0.434      
O        O      0.366450000000     0.075300000000     0.755700000000    -0.4        
O        O      0.363800000000     0.139000000000     0.757466666667    -0.432      
O        O      0.133550000000     0.424700000000     0.910966666667    -0.408      
O        O      0.136200000000     0.361000000000     0.909200000000    -0.436      
O        O      0.208850000000     0.075300000000     0.860766666667    -0.402      
O        O      0.275200000000     0.139000000000     0.816533333333    -0.434      
O        O      0.133550000000     0.000000000000     0.860766666667    -0.4        
O        O      0.136200000000     0.000000000000     0.816533333333    -0.439      
O        O      0.208850000000     0.000000000000     0.910966666667    -0.385      
O        O      0.275200000000     0.000000000000     0.909200000000    -0.427      
O        O      0.226000000000     0.449800000000     0.815866666667    -0.58       
O        O      0.326400000000     0.050200000000     0.815866666667    -0.576      
O        O      0.276200000000     0.449800000000     0.849333333333    -0.58       
O        O      0.276200000000     0.050200000000     0.782400000000    -0.577      
O        O      0.173600000000     0.449800000000     0.850800000000    -0.579      
O        O      0.274000000000     0.050200000000     0.850800000000    -0.574      
O        O      0.223800000000     0.050200000000     0.817333333333    -0.575      
O        O      0.223800000000     0.449800000000     0.884266666667    -0.579      
Hf       Hf     0.304135000000     0.500000000000     0.130576666667     1.499      
Hf       Hf     0.195865000000     0.500000000000     0.202756666667     1.484      
Hf       Hf     0.200120000000     0.500000000000     0.133410000000     1.37       
Hf       Hf     0.299880000000     0.500000000000     0.199923333333     1.368      
Hf       Hf     0.200120000000     0.900240000000     0.199920000000     1.372      
Hf       Hf     0.299880000000     0.599760000000     0.133413333333     1.372      
H        H      0.322100000000     0.500000000000     0.042466666667     0.03       
H        H      0.327950000000     0.500000000000     0.330100000000     0.059      
H        H      0.203200000000     0.500000000000     0.044400000000     0.03       
H        H      0.436300000000     0.500000000000     0.118600000000     0.023      
H        H      0.004850000000     0.500000000000     0.114700000000     0.081      
H        H      0.433400000000     0.500000000000     0.197866666667     0.033      
H        H      0.322100000000     0.885800000000     0.118600000000     0.037      
H        H      0.327950000000     0.823100000000     0.114700000000     0.061      
H        H      0.203200000000     0.769800000000     0.197866666667     0.044      
H        H      0.436300000000     0.614200000000     0.042466666667     0.045      
H        H      0.004850000000     0.676900000000     0.330100000000     0.05       
H        H      0.433400000000     0.730200000000     0.044400000000     0.053      
H        H      0.063700000000     0.885800000000     0.290866666667     0.024      
H        H      0.495150000000     0.823100000000     0.003233333333     0.078      
H        H      0.066600000000     0.769800000000     0.288933333333     0.036      
H        H      0.177900000000     0.614200000000     0.214733333333     0.037      
H        H      0.172050000000     0.676900000000     0.218633333333     0.062      
H        H      0.296800000000     0.730200000000     0.135466666667     0.044      
H        H      0.063700000000     0.500000000000     0.214733333333     0.055      
H        H      0.495150000000     0.500000000000     0.218633333333     0.05       
H        H      0.066600000000     0.500000000000     0.135466666667     0.062      
H        H      0.177900000000     0.500000000000     0.290866666667     0.077      
H        H      0.172050000000     0.500000000000     0.003233333333     0.031      
H        H      0.296800000000     0.500000000000     0.288933333333     0.048      
C        C      0.259950000000     0.500000000000     0.078366666667     0.417      
C        C      0.262300000000     0.500000000000     0.048533333333    -0.132      
C        C      0.299050000000     0.500000000000     0.033633333333     0.046      
C        C      0.302750000000     0.500000000000     0.006100000000    -0.113      
C        C      0.268750000000     0.500000000000     0.325633333333     0.066      
C        C      0.228300000000     0.500000000000     0.034866666667     0.015      
C        C      0.382450000000     0.500000000000     0.160033333333     0.409      
C        C      0.427200000000     0.500000000000     0.158466666667    -0.139      
C        C      0.449550000000     0.500000000000     0.133966666667     0.072      
C        C      0.490850000000     0.500000000000     0.131500000000    -0.146      
C        C      0.011550000000     0.500000000000     0.154166666667     0.061      
C        C      0.447700000000     0.500000000000     0.181133333333     0.011      
C        C      0.259950000000     0.877500000000     0.160033333333     0.396      
C        C      0.262300000000     0.835100000000     0.158466666667    -0.103      
C        C      0.299050000000     0.849500000000     0.133966666667     0.026      
C        C      0.302750000000     0.811900000000     0.131500000000    -0.099      
C        C      0.268750000000     0.757200000000     0.154166666667     0.026      
C        C      0.228300000000     0.780600000000     0.181133333333    -0.031      
C        C      0.382450000000     0.622500000000     0.078366666667     0.39       
C        C      0.427200000000     0.664900000000     0.048533333333    -0.085      
C        C      0.449550000000     0.650500000000     0.033633333333     0.004      
C        C      0.490850000000     0.688100000000     0.006100000000    -0.07       
C        C      0.011550000000     0.742800000000     0.325633333333    -0.007      
C        C      0.447700000000     0.719400000000     0.034866666667    -0.057      
C        C      0.117550000000     0.877500000000     0.254966666667     0.403      
C        C      0.072800000000     0.835100000000     0.284800000000    -0.123      
C        C      0.050450000000     0.849500000000     0.299700000000     0.053      
C        C      0.009150000000     0.811900000000     0.327233333333    -0.141      
C        C      0.488450000000     0.757200000000     0.007700000000     0.061      
C        C      0.052300000000     0.780600000000     0.298466666667    -0.007      
C        C      0.240050000000     0.622500000000     0.173300000000     0.396      
C        C      0.237700000000     0.664900000000     0.174866666667    -0.102      
C        C      0.200950000000     0.650500000000     0.199366666667     0.026      
C        C      0.197250000000     0.688100000000     0.201833333333    -0.099      
C        C      0.231250000000     0.742800000000     0.179166666667     0.026      
C        C      0.271700000000     0.719400000000     0.152200000000    -0.031      
C        C      0.117550000000     0.500000000000     0.173300000000     0.4        
C        C      0.072800000000     0.500000000000     0.174866666667    -0.085      
C        C      0.050450000000     0.500000000000     0.199366666667    -0.011      
C        C      0.009150000000     0.500000000000     0.201833333333    -0.071      
C        C      0.488450000000     0.500000000000     0.179166666667    -0.011      
C        C      0.052300000000     0.500000000000     0.152200000000    -0.068      
C        C      0.240050000000     0.500000000000     0.254966666667     0.358      
C        C      0.237700000000     0.500000000000     0.284800000000    -0.039      
C        C      0.200950000000     0.500000000000     0.299700000000    -0.076      
C        C      0.197250000000     0.500000000000     0.327233333333    -0.012      
C        C      0.231250000000     0.500000000000     0.007700000000    -0.034      
C        C      0.271700000000     0.500000000000     0.298466666667    -0.063      
O        O      0.291150000000     0.500000000000     0.089033333333    -0.412      
O        O      0.224800000000     0.500000000000     0.090800000000    -0.441      
O        O      0.366450000000     0.500000000000     0.139233333333    -0.409      
O        O      0.363800000000     0.500000000000     0.183466666667    -0.439      
O        O      0.291150000000     0.924700000000     0.139233333333    -0.404      
O        O      0.224800000000     0.861000000000     0.183466666667    -0.434      
O        O      0.366450000000     0.575300000000     0.089033333333    -0.4        
O        O      0.363800000000     0.639000000000     0.090800000000    -0.432      
O        O      0.133550000000     0.924700000000     0.244300000000    -0.408      
O        O      0.136200000000     0.861000000000     0.242533333333    -0.436      
O        O      0.208850000000     0.575300000000     0.194100000000    -0.402      
O        O      0.275200000000     0.639000000000     0.149866666667    -0.434      
O        O      0.133550000000     0.500000000000     0.194100000000    -0.4        
O        O      0.136200000000     0.500000000000     0.149866666667    -0.439      
O        O      0.208850000000     0.500000000000     0.244300000000    -0.385      
O        O      0.275200000000     0.500000000000     0.242533333333    -0.427      
O        O      0.226000000000     0.949800000000     0.149200000000    -0.58       
O        O      0.326400000000     0.550200000000     0.149200000000    -0.576      
O        O      0.276200000000     0.949800000000     0.182666666667    -0.58       
O        O      0.276200000000     0.550200000000     0.115733333333    -0.577      
O        O      0.173600000000     0.949800000000     0.184133333333    -0.579      
O        O      0.274000000000     0.550200000000     0.184133333333    -0.574      
O        O      0.223800000000     0.550200000000     0.150666666667    -0.575      
O        O      0.223800000000     0.949800000000     0.217600000000    -0.579      
Hf       Hf     0.304135000000     0.500000000000     0.463910000000     1.499      
Hf       Hf     0.195865000000     0.500000000000     0.536090000000     1.484      
Hf       Hf     0.200120000000     0.500000000000     0.466743333333     1.37       
Hf       Hf     0.299880000000     0.500000000000     0.533256666667     1.368      
Hf       Hf     0.200120000000     0.900240000000     0.533253333333     1.372      
Hf       Hf     0.299880000000     0.599760000000     0.466746666667     1.372      
H        H      0.322100000000     0.500000000000     0.375800000000     0.03       
H        H      0.327950000000     0.500000000000     0.663433333333     0.059      
H        H      0.203200000000     0.500000000000     0.377733333333     0.03       
H        H      0.436300000000     0.500000000000     0.451933333333     0.023      
H        H      0.004850000000     0.500000000000     0.448033333333     0.081      
H        H      0.433400000000     0.500000000000     0.531200000000     0.033      
H        H      0.322100000000     0.885800000000     0.451933333333     0.037      
H        H      0.327950000000     0.823100000000     0.448033333333     0.061      
H        H      0.203200000000     0.769800000000     0.531200000000     0.044      
H        H      0.436300000000     0.614200000000     0.375800000000     0.045      
H        H      0.004850000000     0.676900000000     0.663433333333     0.05       
H        H      0.433400000000     0.730200000000     0.377733333333     0.053      
H        H      0.063700000000     0.885800000000     0.624200000000     0.024      
H        H      0.495150000000     0.823100000000     0.336566666667     0.078      
H        H      0.066600000000     0.769800000000     0.622266666667     0.036      
H        H      0.177900000000     0.614200000000     0.548066666667     0.037      
H        H      0.172050000000     0.676900000000     0.551966666667     0.062      
H        H      0.296800000000     0.730200000000     0.468800000000     0.044      
H        H      0.063700000000     0.500000000000     0.548066666667     0.055      
H        H      0.495150000000     0.500000000000     0.551966666667     0.05       
H        H      0.066600000000     0.500000000000     0.468800000000     0.062      
H        H      0.177900000000     0.500000000000     0.624200000000     0.077      
H        H      0.172050000000     0.500000000000     0.336566666667     0.031      
H        H      0.296800000000     0.500000000000     0.622266666667     0.048      
C        C      0.259950000000     0.500000000000     0.411700000000     0.417      
C        C      0.262300000000     0.500000000000     0.381866666667    -0.132      
C        C      0.299050000000     0.500000000000     0.366966666667     0.046      
C        C      0.302750000000     0.500000000000     0.339433333333    -0.113      
C        C      0.268750000000     0.500000000000     0.658966666667     0.066      
C        C      0.228300000000     0.500000000000     0.368200000000     0.015      
C        C      0.382450000000     0.500000000000     0.493366666667     0.409      
C        C      0.427200000000     0.500000000000     0.491800000000    -0.139      
C        C      0.449550000000     0.500000000000     0.467300000000     0.072      
C        C      0.490850000000     0.500000000000     0.464833333333    -0.146      
C        C      0.011550000000     0.500000000000     0.487500000000     0.061      
C        C      0.447700000000     0.500000000000     0.514466666667     0.011      
C        C      0.259950000000     0.877500000000     0.493366666667     0.396      
C        C      0.262300000000     0.835100000000     0.491800000000    -0.103      
C        C      0.299050000000     0.849500000000     0.467300000000     0.026      
C        C      0.302750000000     0.811900000000     0.464833333333    -0.099      
C        C      0.268750000000     0.757200000000     0.487500000000     0.026      
C        C      0.228300000000     0.780600000000     0.514466666667    -0.031      
C        C      0.382450000000     0.622500000000     0.411700000000     0.39       
C        C      0.427200000000     0.664900000000     0.381866666667    -0.085      
C        C      0.449550000000     0.650500000000     0.366966666667     0.004      
C        C      0.490850000000     0.688100000000     0.339433333333    -0.07       
C        C      0.011550000000     0.742800000000     0.658966666667    -0.007      
C        C      0.447700000000     0.719400000000     0.368200000000    -0.057      
C        C      0.117550000000     0.877500000000     0.588300000000     0.403      
C        C      0.072800000000     0.835100000000     0.618133333333    -0.123      
C        C      0.050450000000     0.849500000000     0.633033333333     0.053      
C        C      0.009150000000     0.811900000000     0.660566666667    -0.141      
C        C      0.488450000000     0.757200000000     0.341033333333     0.061      
C        C      0.052300000000     0.780600000000     0.631800000000    -0.007      
C        C      0.240050000000     0.622500000000     0.506633333333     0.396      
C        C      0.237700000000     0.664900000000     0.508200000000    -0.102      
C        C      0.200950000000     0.650500000000     0.532700000000     0.026      
C        C      0.197250000000     0.688100000000     0.535166666667    -0.099      
C        C      0.231250000000     0.742800000000     0.512500000000     0.026      
C        C      0.271700000000     0.719400000000     0.485533333333    -0.031      
C        C      0.117550000000     0.500000000000     0.506633333333     0.4        
C        C      0.072800000000     0.500000000000     0.508200000000    -0.085      
C        C      0.050450000000     0.500000000000     0.532700000000    -0.011      
C        C      0.009150000000     0.500000000000     0.535166666667    -0.071      
C        C      0.488450000000     0.500000000000     0.512500000000    -0.011      
C        C      0.052300000000     0.500000000000     0.485533333333    -0.068      
C        C      0.240050000000     0.500000000000     0.588300000000     0.358      
C        C      0.237700000000     0.500000000000     0.618133333333    -0.039      
C        C      0.200950000000     0.500000000000     0.633033333333    -0.076      
C        C      0.197250000000     0.500000000000     0.660566666667    -0.012      
C        C      0.231250000000     0.500000000000     0.341033333333    -0.034      
C        C      0.271700000000     0.500000000000     0.631800000000    -0.063      
O        O      0.291150000000     0.500000000000     0.422366666667    -0.412      
O        O      0.224800000000     0.500000000000     0.424133333333    -0.441      
O        O      0.366450000000     0.500000000000     0.472566666667    -0.409      
O        O      0.363800000000     0.500000000000     0.516800000000    -0.439      
O        O      0.291150000000     0.924700000000     0.472566666667    -0.404      
O        O      0.224800000000     0.861000000000     0.516800000000    -0.434      
O        O      0.366450000000     0.575300000000     0.422366666667    -0.4        
O        O      0.363800000000     0.639000000000     0.424133333333    -0.432      
O        O      0.133550000000     0.924700000000     0.577633333333    -0.408      
O        O      0.136200000000     0.861000000000     0.575866666667    -0.436      
O        O      0.208850000000     0.575300000000     0.527433333333    -0.402      
O        O      0.275200000000     0.639000000000     0.483200000000    -0.434      
O        O      0.133550000000     0.500000000000     0.527433333333    -0.4        
O        O      0.136200000000     0.500000000000     0.483200000000    -0.439      
O        O      0.208850000000     0.500000000000     0.577633333333    -0.385      
O        O      0.275200000000     0.500000000000     0.575866666667    -0.427      
O        O      0.226000000000     0.949800000000     0.482533333333    -0.58       
O        O      0.326400000000     0.550200000000     0.482533333333    -0.576      
O        O      0.276200000000     0.949800000000     0.516000000000    -0.58       
O        O      0.276200000000     0.550200000000     0.449066666667    -0.577      
O        O      0.173600000000     0.949800000000     0.517466666667    -0.579      
O        O      0.274000000000     0.550200000000     0.517466666667    -0.574      
O        O      0.223800000000     0.550200000000     0.484000000000    -0.575      
O        O      0.223800000000     0.949800000000     0.550933333333    -0.579      
Hf       Hf     0.304135000000     0.500000000000     0.797243333333     1.499      
Hf       Hf     0.195865000000     0.500000000000     0.869423333333     1.484      
Hf       Hf     0.200120000000     0.500000000000     0.800076666667     1.37       
Hf       Hf     0.299880000000     0.500000000000     0.866590000000     1.368      
Hf       Hf     0.200120000000     0.900240000000     0.866586666667     1.372      
Hf       Hf     0.299880000000     0.599760000000     0.800080000000     1.372      
H        H      0.322100000000     0.500000000000     0.709133333333     0.03       
H        H      0.327950000000     0.500000000000     0.996766666667     0.059      
H        H      0.203200000000     0.500000000000     0.711066666667     0.03       
H        H      0.436300000000     0.500000000000     0.785266666667     0.023      
H        H      0.004850000000     0.500000000000     0.781366666667     0.081      
H        H      0.433400000000     0.500000000000     0.864533333333     0.033      
H        H      0.322100000000     0.885800000000     0.785266666667     0.037      
H        H      0.327950000000     0.823100000000     0.781366666667     0.061      
H        H      0.203200000000     0.769800000000     0.864533333333     0.044      
H        H      0.436300000000     0.614200000000     0.709133333333     0.045      
H        H      0.004850000000     0.676900000000     0.996766666667     0.05       
H        H      0.433400000000     0.730200000000     0.711066666667     0.053      
H        H      0.063700000000     0.885800000000     0.957533333333     0.024      
H        H      0.495150000000     0.823100000000     0.669900000000     0.078      
H        H      0.066600000000     0.769800000000     0.955600000000     0.036      
H        H      0.177900000000     0.614200000000     0.881400000000     0.037      
H        H      0.172050000000     0.676900000000     0.885300000000     0.062      
H        H      0.296800000000     0.730200000000     0.802133333333     0.044      
H        H      0.063700000000     0.500000000000     0.881400000000     0.055      
H        H      0.495150000000     0.500000000000     0.885300000000     0.05       
H        H      0.066600000000     0.500000000000     0.802133333333     0.062      
H        H      0.177900000000     0.500000000000     0.957533333333     0.077      
H        H      0.172050000000     0.500000000000     0.669900000000     0.031      
H        H      0.296800000000     0.500000000000     0.955600000000     0.048      
C        C      0.259950000000     0.500000000000     0.745033333333     0.417      
C        C      0.262300000000     0.500000000000     0.715200000000    -0.132      
C        C      0.299050000000     0.500000000000     0.700300000000     0.046      
C        C      0.302750000000     0.500000000000     0.672766666667    -0.113      
C        C      0.268750000000     0.500000000000     0.992300000000     0.066      
C        C      0.228300000000     0.500000000000     0.701533333333     0.015      
C        C      0.382450000000     0.500000000000     0.826700000000     0.409      
C        C      0.427200000000     0.500000000000     0.825133333333    -0.139      
C        C      0.449550000000     0.500000000000     0.800633333333     0.072      
C        C      0.490850000000     0.500000000000     0.798166666667    -0.146      
C        C      0.011550000000     0.500000000000     0.820833333333     0.061      
C        C      0.447700000000     0.500000000000     0.847800000000     0.011      
C        C      0.259950000000     0.877500000000     0.826700000000     0.396      
C        C      0.262300000000     0.835100000000     0.825133333333    -0.103      
C        C      0.299050000000     0.849500000000     0.800633333333     0.026      
C        C      0.302750000000     0.811900000000     0.798166666667    -0.099      
C        C      0.268750000000     0.757200000000     0.820833333333     0.026      
C        C      0.228300000000     0.780600000000     0.847800000000    -0.031      
C        C      0.382450000000     0.622500000000     0.745033333333     0.39       
C        C      0.427200000000     0.664900000000     0.715200000000    -0.085      
C        C      0.449550000000     0.650500000000     0.700300000000     0.004      
C        C      0.490850000000     0.688100000000     0.672766666667    -0.07       
C        C      0.011550000000     0.742800000000     0.992300000000    -0.007      
C        C      0.447700000000     0.719400000000     0.701533333333    -0.057      
C        C      0.117550000000     0.877500000000     0.921633333333     0.403      
C        C      0.072800000000     0.835100000000     0.951466666667    -0.123      
C        C      0.050450000000     0.849500000000     0.966366666667     0.053      
C        C      0.009150000000     0.811900000000     0.993900000000    -0.141      
C        C      0.488450000000     0.757200000000     0.674366666667     0.061      
C        C      0.052300000000     0.780600000000     0.965133333333    -0.007      
C        C      0.240050000000     0.622500000000     0.839966666667     0.396      
C        C      0.237700000000     0.664900000000     0.841533333333    -0.102      
C        C      0.200950000000     0.650500000000     0.866033333333     0.026      
C        C      0.197250000000     0.688100000000     0.868500000000    -0.099      
C        C      0.231250000000     0.742800000000     0.845833333333     0.026      
C        C      0.271700000000     0.719400000000     0.818866666667    -0.031      
C        C      0.117550000000     0.500000000000     0.839966666667     0.4        
C        C      0.072800000000     0.500000000000     0.841533333333    -0.085      
C        C      0.050450000000     0.500000000000     0.866033333333    -0.011      
C        C      0.009150000000     0.500000000000     0.868500000000    -0.071      
C        C      0.488450000000     0.500000000000     0.845833333333    -0.011      
C        C      0.052300000000     0.500000000000     0.818866666667    -0.068      
C        C      0.240050000000     0.500000000000     0.921633333333     0.358      
C        C      0.237700000000     0.500000000000     0.951466666667    -0.039      
C        C      0.200950000000     0.500000000000     0.966366666667    -0.076      
C        C      0.197250000000     0.500000000000     0.993900000000    -0.012      
C        C      0.231250000000     0.500000000000     0.674366666667    -0.034      
C        C      0.271700000000     0.500000000000     0.965133333333    -0.063      
O        O      0.291150000000     0.500000000000     0.755700000000    -0.412      
O        O      0.224800000000     0.500000000000     0.757466666667    -0.441      
O        O      0.366450000000     0.500000000000     0.805900000000    -0.409      
O        O      0.363800000000     0.500000000000     0.850133333333    -0.439      
O        O      0.291150000000     0.924700000000     0.805900000000    -0.404      
O        O      0.224800000000     0.861000000000     0.850133333333    -0.434      
O        O      0.366450000000     0.575300000000     0.755700000000    -0.4        
O        O      0.363800000000     0.639000000000     0.757466666667    -0.432      
O        O      0.133550000000     0.924700000000     0.910966666667    -0.408      
O        O      0.136200000000     0.861000000000     0.909200000000    -0.436      
O        O      0.208850000000     0.575300000000     0.860766666667    -0.402      
O        O      0.275200000000     0.639000000000     0.816533333333    -0.434      
O        O      0.133550000000     0.500000000000     0.860766666667    -0.4        
O        O      0.136200000000     0.500000000000     0.816533333333    -0.439      
O        O      0.208850000000     0.500000000000     0.910966666667    -0.385      
O        O      0.275200000000     0.500000000000     0.909200000000    -0.427      
O        O      0.226000000000     0.949800000000     0.815866666667    -0.58       
O        O      0.326400000000     0.550200000000     0.815866666667    -0.576      
O        O      0.276200000000     0.949800000000     0.849333333333    -0.58       
O        O      0.276200000000     0.550200000000     0.782400000000    -0.577      
O        O      0.173600000000     0.949800000000     0.850800000000    -0.579      
O        O      0.274000000000     0.550200000000     0.850800000000    -0.574      
O        O      0.223800000000     0.550200000000     0.817333333333    -0.575      
O        O      0.223800000000     0.949800000000     0.884266666667    -0.579      
Hf       Hf     0.804135000000     0.000000000000     0.130576666667     1.499      
Hf       Hf     0.695865000000     0.000000000000     0.202756666667     1.484      
Hf       Hf     0.700120000000     0.000000000000     0.133410000000     1.37       
Hf       Hf     0.799880000000     0.000000000000     0.199923333333     1.368      
Hf       Hf     0.700120000000     0.400240000000     0.199920000000     1.372      
Hf       Hf     0.799880000000     0.099760000000     0.133413333333     1.372      
H        H      0.822100000000     0.000000000000     0.042466666667     0.03       
H        H      0.827950000000     0.000000000000     0.330100000000     0.059      
H        H      0.703200000000     0.000000000000     0.044400000000     0.03       
H        H      0.936300000000     0.000000000000     0.118600000000     0.023      
H        H      0.504850000000     0.000000000000     0.114700000000     0.081      
H        H      0.933400000000     0.000000000000     0.197866666667     0.033      
H        H      0.822100000000     0.385800000000     0.118600000000     0.037      
H        H      0.827950000000     0.323100000000     0.114700000000     0.061      
H        H      0.703200000000     0.269800000000     0.197866666667     0.044      
H        H      0.936300000000     0.114200000000     0.042466666667     0.045      
H        H      0.504850000000     0.176900000000     0.330100000000     0.05       
H        H      0.933400000000     0.230200000000     0.044400000000     0.053      
H        H      0.563700000000     0.385800000000     0.290866666667     0.024      
H        H      0.995150000000     0.323100000000     0.003233333333     0.078      
H        H      0.566600000000     0.269800000000     0.288933333333     0.036      
H        H      0.677900000000     0.114200000000     0.214733333333     0.037      
H        H      0.672050000000     0.176900000000     0.218633333333     0.062      
H        H      0.796800000000     0.230200000000     0.135466666667     0.044      
H        H      0.563700000000     0.000000000000     0.214733333333     0.055      
H        H      0.995150000000     0.000000000000     0.218633333333     0.05       
H        H      0.566600000000     0.000000000000     0.135466666667     0.062      
H        H      0.677900000000     0.000000000000     0.290866666667     0.077      
H        H      0.672050000000     0.000000000000     0.003233333333     0.031      
H        H      0.796800000000     0.000000000000     0.288933333333     0.048      
C        C      0.759950000000     0.000000000000     0.078366666667     0.417      
C        C      0.762300000000     0.000000000000     0.048533333333    -0.132      
C        C      0.799050000000     0.000000000000     0.033633333333     0.046      
C        C      0.802750000000     0.000000000000     0.006100000000    -0.113      
C        C      0.768750000000     0.000000000000     0.325633333333     0.066      
C        C      0.728300000000     0.000000000000     0.034866666667     0.015      
C        C      0.882450000000     0.000000000000     0.160033333333     0.409      
C        C      0.927200000000     0.000000000000     0.158466666667    -0.139      
C        C      0.949550000000     0.000000000000     0.133966666667     0.072      
C        C      0.990850000000     0.000000000000     0.131500000000    -0.146      
C        C      0.511550000000     0.000000000000     0.154166666667     0.061      
C        C      0.947700000000     0.000000000000     0.181133333333     0.011      
C        C      0.759950000000     0.377500000000     0.160033333333     0.396      
C        C      0.762300000000     0.335100000000     0.158466666667    -0.103      
C        C      0.799050000000     0.349500000000     0.133966666667     0.026      
C        C      0.802750000000     0.311900000000     0.131500000000    -0.099      
C        C      0.768750000000     0.257200000000     0.154166666667     0.026      
C        C      0.728300000000     0.280600000000     0.181133333333    -0.031      
C        C      0.882450000000     0.122500000000     0.078366666667     0.39       
C        C      0.927200000000     0.164900000000     0.048533333333    -0.085      
C        C      0.949550000000     0.150500000000     0.033633333333     0.004      
C        C      0.990850000000     0.188100000000     0.006100000000    -0.07       
C        C      0.511550000000     0.242800000000     0.325633333333    -0.007      
C        C      0.947700000000     0.219400000000     0.034866666667    -0.057      
C        C      0.617550000000     0.377500000000     0.254966666667     0.403      
C        C      0.572800000000     0.335100000000     0.284800000000    -0.123      
C        C      0.550450000000     0.349500000000     0.299700000000     0.053      
C        C      0.509150000000     0.311900000000     0.327233333333    -0.141      
C        C      0.988450000000     0.257200000000     0.007700000000     0.061      
C        C      0.552300000000     0.280600000000     0.298466666667    -0.007      
C        C      0.740050000000     0.122500000000     0.173300000000     0.396      
C        C      0.737700000000     0.164900000000     0.174866666667    -0.102      
C        C      0.700950000000     0.150500000000     0.199366666667     0.026      
C        C      0.697250000000     0.188100000000     0.201833333333    -0.099      
C        C      0.731250000000     0.242800000000     0.179166666667     0.026      
C        C      0.771700000000     0.219400000000     0.152200000000    -0.031      
C        C      0.617550000000     0.000000000000     0.173300000000     0.4        
C        C      0.572800000000     0.000000000000     0.174866666667    -0.085      
C        C      0.550450000000     0.000000000000     0.199366666667    -0.011      
C        C      0.509150000000     0.000000000000     0.201833333333    -0.071      
C        C      0.988450000000     0.000000000000     0.179166666667    -0.011      
C        C      0.552300000000     0.000000000000     0.152200000000    -0.068      
C        C      0.740050000000     0.000000000000     0.254966666667     0.358      
C        C      0.737700000000     0.000000000000     0.284800000000    -0.039      
C        C      0.700950000000     0.000000000000     0.299700000000    -0.076      
C        C      0.697250000000     0.000000000000     0.327233333333    -0.012      
C        C      0.731250000000     0.000000000000     0.007700000000    -0.034      
C        C      0.771700000000     0.000000000000     0.298466666667    -0.063      
O        O      0.791150000000     0.000000000000     0.089033333333    -0.412      
O        O      0.724800000000     0.000000000000     0.090800000000    -0.441      
O        O      0.866450000000     0.000000000000     0.139233333333    -0.409      
O        O      0.863800000000     0.000000000000     0.183466666667    -0.439      
O        O      0.791150000000     0.424700000000     0.139233333333    -0.404      
O        O      0.724800000000     0.361000000000     0.183466666667    -0.434      
O        O      0.866450000000     0.075300000000     0.089033333333    -0.4        
O        O      0.863800000000     0.139000000000     0.090800000000    -0.432      
O        O      0.633550000000     0.424700000000     0.244300000000    -0.408      
O        O      0.636200000000     0.361000000000     0.242533333333    -0.436      
O        O      0.708850000000     0.075300000000     0.194100000000    -0.402      
O        O      0.775200000000     0.139000000000     0.149866666667    -0.434      
O        O      0.633550000000     0.000000000000     0.194100000000    -0.4        
O        O      0.636200000000     0.000000000000     0.149866666667    -0.439      
O        O      0.708850000000     0.000000000000     0.244300000000    -0.385      
O        O      0.775200000000     0.000000000000     0.242533333333    -0.427      
O        O      0.726000000000     0.449800000000     0.149200000000    -0.58       
O        O      0.826400000000     0.050200000000     0.149200000000    -0.576      
O        O      0.776200000000     0.449800000000     0.182666666667    -0.58       
O        O      0.776200000000     0.050200000000     0.115733333333    -0.577      
O        O      0.673600000000     0.449800000000     0.184133333333    -0.579      
O        O      0.774000000000     0.050200000000     0.184133333333    -0.574      
O        O      0.723800000000     0.050200000000     0.150666666667    -0.575      
O        O      0.723800000000     0.449800000000     0.217600000000    -0.579      
Hf       Hf     0.804135000000     0.000000000000     0.463910000000     1.499      
Hf       Hf     0.695865000000     0.000000000000     0.536090000000     1.484      
Hf       Hf     0.700120000000     0.000000000000     0.466743333333     1.37       
Hf       Hf     0.799880000000     0.000000000000     0.533256666667     1.368      
Hf       Hf     0.700120000000     0.400240000000     0.533253333333     1.372      
Hf       Hf     0.799880000000     0.099760000000     0.466746666667     1.372      
H        H      0.822100000000     0.000000000000     0.375800000000     0.03       
H        H      0.827950000000     0.000000000000     0.663433333333     0.059      
H        H      0.703200000000     0.000000000000     0.377733333333     0.03       
H        H      0.936300000000     0.000000000000     0.451933333333     0.023      
H        H      0.504850000000     0.000000000000     0.448033333333     0.081      
H        H      0.933400000000     0.000000000000     0.531200000000     0.033      
H        H      0.822100000000     0.385800000000     0.451933333333     0.037      
H        H      0.827950000000     0.323100000000     0.448033333333     0.061      
H        H      0.703200000000     0.269800000000     0.531200000000     0.044      
H        H      0.936300000000     0.114200000000     0.375800000000     0.045      
H        H      0.504850000000     0.176900000000     0.663433333333     0.05       
H        H      0.933400000000     0.230200000000     0.377733333333     0.053      
H        H      0.563700000000     0.385800000000     0.624200000000     0.024      
H        H      0.995150000000     0.323100000000     0.336566666667     0.078      
H        H      0.566600000000     0.269800000000     0.622266666667     0.036      
H        H      0.677900000000     0.114200000000     0.548066666667     0.037      
H        H      0.672050000000     0.176900000000     0.551966666667     0.062      
H        H      0.796800000000     0.230200000000     0.468800000000     0.044      
H        H      0.563700000000     0.000000000000     0.548066666667     0.055      
H        H      0.995150000000     0.000000000000     0.551966666667     0.05       
H        H      0.566600000000     0.000000000000     0.468800000000     0.062      
H        H      0.677900000000     0.000000000000     0.624200000000     0.077      
H        H      0.672050000000     0.000000000000     0.336566666667     0.031      
H        H      0.796800000000     0.000000000000     0.622266666667     0.048      
C        C      0.759950000000     0.000000000000     0.411700000000     0.417      
C        C      0.762300000000     0.000000000000     0.381866666667    -0.132      
C        C      0.799050000000     0.000000000000     0.366966666667     0.046      
C        C      0.802750000000     0.000000000000     0.339433333333    -0.113      
C        C      0.768750000000     0.000000000000     0.658966666667     0.066      
C        C      0.728300000000     0.000000000000     0.368200000000     0.015      
C        C      0.882450000000     0.000000000000     0.493366666667     0.409      
C        C      0.927200000000     0.000000000000     0.491800000000    -0.139      
C        C      0.949550000000     0.000000000000     0.467300000000     0.072      
C        C      0.990850000000     0.000000000000     0.464833333333    -0.146      
C        C      0.511550000000     0.000000000000     0.487500000000     0.061      
C        C      0.947700000000     0.000000000000     0.514466666667     0.011      
C        C      0.759950000000     0.377500000000     0.493366666667     0.396      
C        C      0.762300000000     0.335100000000     0.491800000000    -0.103      
C        C      0.799050000000     0.349500000000     0.467300000000     0.026      
C        C      0.802750000000     0.311900000000     0.464833333333    -0.099      
C        C      0.768750000000     0.257200000000     0.487500000000     0.026      
C        C      0.728300000000     0.280600000000     0.514466666667    -0.031      
C        C      0.882450000000     0.122500000000     0.411700000000     0.39       
C        C      0.927200000000     0.164900000000     0.381866666667    -0.085      
C        C      0.949550000000     0.150500000000     0.366966666667     0.004      
C        C      0.990850000000     0.188100000000     0.339433333333    -0.07       
C        C      0.511550000000     0.242800000000     0.658966666667    -0.007      
C        C      0.947700000000     0.219400000000     0.368200000000    -0.057      
C        C      0.617550000000     0.377500000000     0.588300000000     0.403      
C        C      0.572800000000     0.335100000000     0.618133333333    -0.123      
C        C      0.550450000000     0.349500000000     0.633033333333     0.053      
C        C      0.509150000000     0.311900000000     0.660566666667    -0.141      
C        C      0.988450000000     0.257200000000     0.341033333333     0.061      
C        C      0.552300000000     0.280600000000     0.631800000000    -0.007      
C        C      0.740050000000     0.122500000000     0.506633333333     0.396      
C        C      0.737700000000     0.164900000000     0.508200000000    -0.102      
C        C      0.700950000000     0.150500000000     0.532700000000     0.026      
C        C      0.697250000000     0.188100000000     0.535166666667    -0.099      
C        C      0.731250000000     0.242800000000     0.512500000000     0.026      
C        C      0.771700000000     0.219400000000     0.485533333333    -0.031      
C        C      0.617550000000     0.000000000000     0.506633333333     0.4        
C        C      0.572800000000     0.000000000000     0.508200000000    -0.085      
C        C      0.550450000000     0.000000000000     0.532700000000    -0.011      
C        C      0.509150000000     0.000000000000     0.535166666667    -0.071      
C        C      0.988450000000     0.000000000000     0.512500000000    -0.011      
C        C      0.552300000000     0.000000000000     0.485533333333    -0.068      
C        C      0.740050000000     0.000000000000     0.588300000000     0.358      
C        C      0.737700000000     0.000000000000     0.618133333333    -0.039      
C        C      0.700950000000     0.000000000000     0.633033333333    -0.076      
C        C      0.697250000000     0.000000000000     0.660566666667    -0.012      
C        C      0.731250000000     0.000000000000     0.341033333333    -0.034      
C        C      0.771700000000     0.000000000000     0.631800000000    -0.063      
O        O      0.791150000000     0.000000000000     0.422366666667    -0.412      
O        O      0.724800000000     0.000000000000     0.424133333333    -0.441      
O        O      0.866450000000     0.000000000000     0.472566666667    -0.409      
O        O      0.863800000000     0.000000000000     0.516800000000    -0.439      
O        O      0.791150000000     0.424700000000     0.472566666667    -0.404      
O        O      0.724800000000     0.361000000000     0.516800000000    -0.434      
O        O      0.866450000000     0.075300000000     0.422366666667    -0.4        
O        O      0.863800000000     0.139000000000     0.424133333333    -0.432      
O        O      0.633550000000     0.424700000000     0.577633333333    -0.408      
O        O      0.636200000000     0.361000000000     0.575866666667    -0.436      
O        O      0.708850000000     0.075300000000     0.527433333333    -0.402      
O        O      0.775200000000     0.139000000000     0.483200000000    -0.434      
O        O      0.633550000000     0.000000000000     0.527433333333    -0.4        
O        O      0.636200000000     0.000000000000     0.483200000000    -0.439      
O        O      0.708850000000     0.000000000000     0.577633333333    -0.385      
O        O      0.775200000000     0.000000000000     0.575866666667    -0.427      
O        O      0.726000000000     0.449800000000     0.482533333333    -0.58       
O        O      0.826400000000     0.050200000000     0.482533333333    -0.576      
O        O      0.776200000000     0.449800000000     0.516000000000    -0.58       
O        O      0.776200000000     0.050200000000     0.449066666667    -0.577      
O        O      0.673600000000     0.449800000000     0.517466666667    -0.579      
O        O      0.774000000000     0.050200000000     0.517466666667    -0.574      
O        O      0.723800000000     0.050200000000     0.484000000000    -0.575      
O        O      0.723800000000     0.449800000000     0.550933333333    -0.579      
Hf       Hf     0.804135000000     0.000000000000     0.797243333333     1.499      
Hf       Hf     0.695865000000     0.000000000000     0.869423333333     1.484      
Hf       Hf     0.700120000000     0.000000000000     0.800076666667     1.37       
Hf       Hf     0.799880000000     0.000000000000     0.866590000000     1.368      
Hf       Hf     0.700120000000     0.400240000000     0.866586666667     1.372      
Hf       Hf     0.799880000000     0.099760000000     0.800080000000     1.372      
H        H      0.822100000000     0.000000000000     0.709133333333     0.03       
H        H      0.827950000000     0.000000000000     0.996766666667     0.059      
H        H      0.703200000000     0.000000000000     0.711066666667     0.03       
H        H      0.936300000000     0.000000000000     0.785266666667     0.023      
H        H      0.504850000000     0.000000000000     0.781366666667     0.081      
H        H      0.933400000000     0.000000000000     0.864533333333     0.033      
H        H      0.822100000000     0.385800000000     0.785266666667     0.037      
H        H      0.827950000000     0.323100000000     0.781366666667     0.061      
H        H      0.703200000000     0.269800000000     0.864533333333     0.044      
H        H      0.936300000000     0.114200000000     0.709133333333     0.045      
H        H      0.504850000000     0.176900000000     0.996766666667     0.05       
H        H      0.933400000000     0.230200000000     0.711066666667     0.053      
H        H      0.563700000000     0.385800000000     0.957533333333     0.024      
H        H      0.995150000000     0.323100000000     0.669900000000     0.078      
H        H      0.566600000000     0.269800000000     0.955600000000     0.036      
H        H      0.677900000000     0.114200000000     0.881400000000     0.037      
H        H      0.672050000000     0.176900000000     0.885300000000     0.062      
H        H      0.796800000000     0.230200000000     0.802133333333     0.044      
H        H      0.563700000000     0.000000000000     0.881400000000     0.055      
H        H      0.995150000000     0.000000000000     0.885300000000     0.05       
H        H      0.566600000000     0.000000000000     0.802133333333     0.062      
H        H      0.677900000000     0.000000000000     0.957533333333     0.077      
H        H      0.672050000000     0.000000000000     0.669900000000     0.031      
H        H      0.796800000000     0.000000000000     0.955600000000     0.048      
C        C      0.759950000000     0.000000000000     0.745033333333     0.417      
C        C      0.762300000000     0.000000000000     0.715200000000    -0.132      
C        C      0.799050000000     0.000000000000     0.700300000000     0.046      
C        C      0.802750000000     0.000000000000     0.672766666667    -0.113      
C        C      0.768750000000     0.000000000000     0.992300000000     0.066      
C        C      0.728300000000     0.000000000000     0.701533333333     0.015      
C        C      0.882450000000     0.000000000000     0.826700000000     0.409      
C        C      0.927200000000     0.000000000000     0.825133333333    -0.139      
C        C      0.949550000000     0.000000000000     0.800633333333     0.072      
C        C      0.990850000000     0.000000000000     0.798166666667    -0.146      
C        C      0.511550000000     0.000000000000     0.820833333333     0.061      
C        C      0.947700000000     0.000000000000     0.847800000000     0.011      
C        C      0.759950000000     0.377500000000     0.826700000000     0.396      
C        C      0.762300000000     0.335100000000     0.825133333333    -0.103      
C        C      0.799050000000     0.349500000000     0.800633333333     0.026      
C        C      0.802750000000     0.311900000000     0.798166666667    -0.099      
C        C      0.768750000000     0.257200000000     0.820833333333     0.026      
C        C      0.728300000000     0.280600000000     0.847800000000    -0.031      
C        C      0.882450000000     0.122500000000     0.745033333333     0.39       
C        C      0.927200000000     0.164900000000     0.715200000000    -0.085      
C        C      0.949550000000     0.150500000000     0.700300000000     0.004      
C        C      0.990850000000     0.188100000000     0.672766666667    -0.07       
C        C      0.511550000000     0.242800000000     0.992300000000    -0.007      
C        C      0.947700000000     0.219400000000     0.701533333333    -0.057      
C        C      0.617550000000     0.377500000000     0.921633333333     0.403      
C        C      0.572800000000     0.335100000000     0.951466666667    -0.123      
C        C      0.550450000000     0.349500000000     0.966366666667     0.053      
C        C      0.509150000000     0.311900000000     0.993900000000    -0.141      
C        C      0.988450000000     0.257200000000     0.674366666667     0.061      
C        C      0.552300000000     0.280600000000     0.965133333333    -0.007      
C        C      0.740050000000     0.122500000000     0.839966666667     0.396      
C        C      0.737700000000     0.164900000000     0.841533333333    -0.102      
C        C      0.700950000000     0.150500000000     0.866033333333     0.026      
C        C      0.697250000000     0.188100000000     0.868500000000    -0.099      
C        C      0.731250000000     0.242800000000     0.845833333333     0.026      
C        C      0.771700000000     0.219400000000     0.818866666667    -0.031      
C        C      0.617550000000     0.000000000000     0.839966666667     0.4        
C        C      0.572800000000     0.000000000000     0.841533333333    -0.085      
C        C      0.550450000000     0.000000000000     0.866033333333    -0.011      
C        C      0.509150000000     0.000000000000     0.868500000000    -0.071      
C        C      0.988450000000     0.000000000000     0.845833333333    -0.011      
C        C      0.552300000000     0.000000000000     0.818866666667    -0.068      
C        C      0.740050000000     0.000000000000     0.921633333333     0.358      
C        C      0.737700000000     0.000000000000     0.951466666667    -0.039      
C        C      0.700950000000     0.000000000000     0.966366666667    -0.076      
C        C      0.697250000000     0.000000000000     0.993900000000    -0.012      
C        C      0.731250000000     0.000000000000     0.674366666667    -0.034      
C        C      0.771700000000     0.000000000000     0.965133333333    -0.063      
O        O      0.791150000000     0.000000000000     0.755700000000    -0.412      
O        O      0.724800000000     0.000000000000     0.757466666667    -0.441      
O        O      0.866450000000     0.000000000000     0.805900000000    -0.409      
O        O      0.863800000000     0.000000000000     0.850133333333    -0.439      
O        O      0.791150000000     0.424700000000     0.805900000000    -0.404      
O        O      0.724800000000     0.361000000000     0.850133333333    -0.434      
O        O      0.866450000000     0.075300000000     0.755700000000    -0.4        
O        O      0.863800000000     0.139000000000     0.757466666667    -0.432      
O        O      0.633550000000     0.424700000000     0.910966666667    -0.408      
O        O      0.636200000000     0.361000000000     0.909200000000    -0.436      
O        O      0.708850000000     0.075300000000     0.860766666667    -0.402      
O        O      0.775200000000     0.139000000000     0.816533333333    -0.434      
O        O      0.633550000000     0.000000000000     0.860766666667    -0.4        
O        O      0.636200000000     0.000000000000     0.816533333333    -0.439      
O        O      0.708850000000     0.000000000000     0.910966666667    -0.385      
O        O      0.775200000000     0.000000000000     0.909200000000    -0.427      
O        O      0.726000000000     0.449800000000     0.815866666667    -0.58       
O        O      0.826400000000     0.050200000000     0.815866666667    -0.576      
O        O      0.776200000000     0.449800000000     0.849333333333    -0.58       
O        O      0.776200000000     0.050200000000     0.782400000000    -0.577      
O        O      0.673600000000     0.449800000000     0.850800000000    -0.579      
O        O      0.774000000000     0.050200000000     0.850800000000    -0.574      
O        O      0.723800000000     0.050200000000     0.817333333333    -0.575      
O        O      0.723800000000     0.449800000000     0.884266666667    -0.579      
Hf       Hf     0.804135000000     0.500000000000     0.130576666667     1.499      
Hf       Hf     0.695865000000     0.500000000000     0.202756666667     1.484      
Hf       Hf     0.700120000000     0.500000000000     0.133410000000     1.37       
Hf       Hf     0.799880000000     0.500000000000     0.199923333333     1.368      
Hf       Hf     0.700120000000     0.900240000000     0.199920000000     1.372      
Hf       Hf     0.799880000000     0.599760000000     0.133413333333     1.372      
H        H      0.822100000000     0.500000000000     0.042466666667     0.03       
H        H      0.827950000000     0.500000000000     0.330100000000     0.059      
H        H      0.703200000000     0.500000000000     0.044400000000     0.03       
H        H      0.936300000000     0.500000000000     0.118600000000     0.023      
H        H      0.504850000000     0.500000000000     0.114700000000     0.081      
H        H      0.933400000000     0.500000000000     0.197866666667     0.033      
H        H      0.822100000000     0.885800000000     0.118600000000     0.037      
H        H      0.827950000000     0.823100000000     0.114700000000     0.061      
H        H      0.703200000000     0.769800000000     0.197866666667     0.044      
H        H      0.936300000000     0.614200000000     0.042466666667     0.045      
H        H      0.504850000000     0.676900000000     0.330100000000     0.05       
H        H      0.933400000000     0.730200000000     0.044400000000     0.053      
H        H      0.563700000000     0.885800000000     0.290866666667     0.024      
H        H      0.995150000000     0.823100000000     0.003233333333     0.078      
H        H      0.566600000000     0.769800000000     0.288933333333     0.036      
H        H      0.677900000000     0.614200000000     0.214733333333     0.037      
H        H      0.672050000000     0.676900000000     0.218633333333     0.062      
H        H      0.796800000000     0.730200000000     0.135466666667     0.044      
H        H      0.563700000000     0.500000000000     0.214733333333     0.055      
H        H      0.995150000000     0.500000000000     0.218633333333     0.05       
H        H      0.566600000000     0.500000000000     0.135466666667     0.062      
H        H      0.677900000000     0.500000000000     0.290866666667     0.077      
H        H      0.672050000000     0.500000000000     0.003233333333     0.031      
H        H      0.796800000000     0.500000000000     0.288933333333     0.048      
C        C      0.759950000000     0.500000000000     0.078366666667     0.417      
C        C      0.762300000000     0.500000000000     0.048533333333    -0.132      
C        C      0.799050000000     0.500000000000     0.033633333333     0.046      
C        C      0.802750000000     0.500000000000     0.006100000000    -0.113      
C        C      0.768750000000     0.500000000000     0.325633333333     0.066      
C        C      0.728300000000     0.500000000000     0.034866666667     0.015      
C        C      0.882450000000     0.500000000000     0.160033333333     0.409      
C        C      0.927200000000     0.500000000000     0.158466666667    -0.139      
C        C      0.949550000000     0.500000000000     0.133966666667     0.072      
C        C      0.990850000000     0.500000000000     0.131500000000    -0.146      
C        C      0.511550000000     0.500000000000     0.154166666667     0.061      
C        C      0.947700000000     0.500000000000     0.181133333333     0.011      
C        C      0.759950000000     0.877500000000     0.160033333333     0.396      
C        C      0.762300000000     0.835100000000     0.158466666667    -0.103      
C        C      0.799050000000     0.849500000000     0.133966666667     0.026      
C        C      0.802750000000     0.811900000000     0.131500000000    -0.099      
C        C      0.768750000000     0.757200000000     0.154166666667     0.026      
C        C      0.728300000000     0.780600000000     0.181133333333    -0.031      
C        C      0.882450000000     0.622500000000     0.078366666667     0.39       
C        C      0.927200000000     0.664900000000     0.048533333333    -0.085      
C        C      0.949550000000     0.650500000000     0.033633333333     0.004      
C        C      0.990850000000     0.688100000000     0.006100000000    -0.07       
C        C      0.511550000000     0.742800000000     0.325633333333    -0.007      
C        C      0.947700000000     0.719400000000     0.034866666667    -0.057      
C        C      0.617550000000     0.877500000000     0.254966666667     0.403      
C        C      0.572800000000     0.835100000000     0.284800000000    -0.123      
C        C      0.550450000000     0.849500000000     0.299700000000     0.053      
C        C      0.509150000000     0.811900000000     0.327233333333    -0.141      
C        C      0.988450000000     0.757200000000     0.007700000000     0.061      
C        C      0.552300000000     0.780600000000     0.298466666667    -0.007      
C        C      0.740050000000     0.622500000000     0.173300000000     0.396      
C        C      0.737700000000     0.664900000000     0.174866666667    -0.102      
C        C      0.700950000000     0.650500000000     0.199366666667     0.026      
C        C      0.697250000000     0.688100000000     0.201833333333    -0.099      
C        C      0.731250000000     0.742800000000     0.179166666667     0.026      
C        C      0.771700000000     0.719400000000     0.152200000000    -0.031      
C        C      0.617550000000     0.500000000000     0.173300000000     0.4        
C        C      0.572800000000     0.500000000000     0.174866666667    -0.085      
C        C      0.550450000000     0.500000000000     0.199366666667    -0.011      
C        C      0.509150000000     0.500000000000     0.201833333333    -0.071      
C        C      0.988450000000     0.500000000000     0.179166666667    -0.011      
C        C      0.552300000000     0.500000000000     0.152200000000    -0.068      
C        C      0.740050000000     0.500000000000     0.254966666667     0.358      
C        C      0.737700000000     0.500000000000     0.284800000000    -0.039      
C        C      0.700950000000     0.500000000000     0.299700000000    -0.076      
C        C      0.697250000000     0.500000000000     0.327233333333    -0.012      
C        C      0.731250000000     0.500000000000     0.007700000000    -0.034      
C        C      0.771700000000     0.500000000000     0.298466666667    -0.063      
O        O      0.791150000000     0.500000000000     0.089033333333    -0.412      
O        O      0.724800000000     0.500000000000     0.090800000000    -0.441      
O        O      0.866450000000     0.500000000000     0.139233333333    -0.409      
O        O      0.863800000000     0.500000000000     0.183466666667    -0.439      
O        O      0.791150000000     0.924700000000     0.139233333333    -0.404      
O        O      0.724800000000     0.861000000000     0.183466666667    -0.434      
O        O      0.866450000000     0.575300000000     0.089033333333    -0.4        
O        O      0.863800000000     0.639000000000     0.090800000000    -0.432      
O        O      0.633550000000     0.924700000000     0.244300000000    -0.408      
O        O      0.636200000000     0.861000000000     0.242533333333    -0.436      
O        O      0.708850000000     0.575300000000     0.194100000000    -0.402      
O        O      0.775200000000     0.639000000000     0.149866666667    -0.434      
O        O      0.633550000000     0.500000000000     0.194100000000    -0.4        
O        O      0.636200000000     0.500000000000     0.149866666667    -0.439      
O        O      0.708850000000     0.500000000000     0.244300000000    -0.385      
O        O      0.775200000000     0.500000000000     0.242533333333    -0.427      
O        O      0.726000000000     0.949800000000     0.149200000000    -0.58       
O        O      0.826400000000     0.550200000000     0.149200000000    -0.576      
O        O      0.776200000000     0.949800000000     0.182666666667    -0.58       
O        O      0.776200000000     0.550200000000     0.115733333333    -0.577      
O        O      0.673600000000     0.949800000000     0.184133333333    -0.579      
O        O      0.774000000000     0.550200000000     0.184133333333    -0.574      
O        O      0.723800000000     0.550200000000     0.150666666667    -0.575      
O        O      0.723800000000     0.949800000000     0.217600000000    -0.579      
Hf       Hf     0.804135000000     0.500000000000     0.463910000000     1.499      
Hf       Hf     0.695865000000     0.500000000000     0.536090000000     1.484      
Hf       Hf     0.700120000000     0.500000000000     0.466743333333     1.37       
Hf       Hf     0.799880000000     0.500000000000     0.533256666667     1.368      
Hf       Hf     0.700120000000     0.900240000000     0.533253333333     1.372      
Hf       Hf     0.799880000000     0.599760000000     0.466746666667     1.372      
H        H      0.822100000000     0.500000000000     0.375800000000     0.03       
H        H      0.827950000000     0.500000000000     0.663433333333     0.059      
H        H      0.703200000000     0.500000000000     0.377733333333     0.03       
H        H      0.936300000000     0.500000000000     0.451933333333     0.023      
H        H      0.504850000000     0.500000000000     0.448033333333     0.081      
H        H      0.933400000000     0.500000000000     0.531200000000     0.033      
H        H      0.822100000000     0.885800000000     0.451933333333     0.037      
H        H      0.827950000000     0.823100000000     0.448033333333     0.061      
H        H      0.703200000000     0.769800000000     0.531200000000     0.044      
H        H      0.936300000000     0.614200000000     0.375800000000     0.045      
H        H      0.504850000000     0.676900000000     0.663433333333     0.05       
H        H      0.933400000000     0.730200000000     0.377733333333     0.053      
H        H      0.563700000000     0.885800000000     0.624200000000     0.024      
H        H      0.995150000000     0.823100000000     0.336566666667     0.078      
H        H      0.566600000000     0.769800000000     0.622266666667     0.036      
H        H      0.677900000000     0.614200000000     0.548066666667     0.037      
H        H      0.672050000000     0.676900000000     0.551966666667     0.062      
H        H      0.796800000000     0.730200000000     0.468800000000     0.044      
H        H      0.563700000000     0.500000000000     0.548066666667     0.055      
H        H      0.995150000000     0.500000000000     0.551966666667     0.05       
H        H      0.566600000000     0.500000000000     0.468800000000     0.062      
H        H      0.677900000000     0.500000000000     0.624200000000     0.077      
H        H      0.672050000000     0.500000000000     0.336566666667     0.031      
H        H      0.796800000000     0.500000000000     0.622266666667     0.048      
C        C      0.759950000000     0.500000000000     0.411700000000     0.417      
C        C      0.762300000000     0.500000000000     0.381866666667    -0.132      
C        C      0.799050000000     0.500000000000     0.366966666667     0.046      
C        C      0.802750000000     0.500000000000     0.339433333333    -0.113      
C        C      0.768750000000     0.500000000000     0.658966666667     0.066      
C        C      0.728300000000     0.500000000000     0.368200000000     0.015      
C        C      0.882450000000     0.500000000000     0.493366666667     0.409      
C        C      0.927200000000     0.500000000000     0.491800000000    -0.139      
C        C      0.949550000000     0.500000000000     0.467300000000     0.072      
C        C      0.990850000000     0.500000000000     0.464833333333    -0.146      
C        C      0.511550000000     0.500000000000     0.487500000000     0.061      
C        C      0.947700000000     0.500000000000     0.514466666667     0.011      
C        C      0.759950000000     0.877500000000     0.493366666667     0.396      
C        C      0.762300000000     0.835100000000     0.491800000000    -0.103      
C        C      0.799050000000     0.849500000000     0.467300000000     0.026      
C        C      0.802750000000     0.811900000000     0.464833333333    -0.099      
C        C      0.768750000000     0.757200000000     0.487500000000     0.026      
C        C      0.728300000000     0.780600000000     0.514466666667    -0.031      
C        C      0.882450000000     0.622500000000     0.411700000000     0.39       
C        C      0.927200000000     0.664900000000     0.381866666667    -0.085      
C        C      0.949550000000     0.650500000000     0.366966666667     0.004      
C        C      0.990850000000     0.688100000000     0.339433333333    -0.07       
C        C      0.511550000000     0.742800000000     0.658966666667    -0.007      
C        C      0.947700000000     0.719400000000     0.368200000000    -0.057      
C        C      0.617550000000     0.877500000000     0.588300000000     0.403      
C        C      0.572800000000     0.835100000000     0.618133333333    -0.123      
C        C      0.550450000000     0.849500000000     0.633033333333     0.053      
C        C      0.509150000000     0.811900000000     0.660566666667    -0.141      
C        C      0.988450000000     0.757200000000     0.341033333333     0.061      
C        C      0.552300000000     0.780600000000     0.631800000000    -0.007      
C        C      0.740050000000     0.622500000000     0.506633333333     0.396      
C        C      0.737700000000     0.664900000000     0.508200000000    -0.102      
C        C      0.700950000000     0.650500000000     0.532700000000     0.026      
C        C      0.697250000000     0.688100000000     0.535166666667    -0.099      
C        C      0.731250000000     0.742800000000     0.512500000000     0.026      
C        C      0.771700000000     0.719400000000     0.485533333333    -0.031      
C        C      0.617550000000     0.500000000000     0.506633333333     0.4        
C        C      0.572800000000     0.500000000000     0.508200000000    -0.085      
C        C      0.550450000000     0.500000000000     0.532700000000    -0.011      
C        C      0.509150000000     0.500000000000     0.535166666667    -0.071      
C        C      0.988450000000     0.500000000000     0.512500000000    -0.011      
C        C      0.552300000000     0.500000000000     0.485533333333    -0.068      
C        C      0.740050000000     0.500000000000     0.588300000000     0.358      
C        C      0.737700000000     0.500000000000     0.618133333333    -0.039      
C        C      0.700950000000     0.500000000000     0.633033333333    -0.076      
C        C      0.697250000000     0.500000000000     0.660566666667    -0.012      
C        C      0.731250000000     0.500000000000     0.341033333333    -0.034      
C        C      0.771700000000     0.500000000000     0.631800000000    -0.063      
O        O      0.791150000000     0.500000000000     0.422366666667    -0.412      
O        O      0.724800000000     0.500000000000     0.424133333333    -0.441      
O        O      0.866450000000     0.500000000000     0.472566666667    -0.409      
O        O      0.863800000000     0.500000000000     0.516800000000    -0.439      
O        O      0.791150000000     0.924700000000     0.472566666667    -0.404      
O        O      0.724800000000     0.861000000000     0.516800000000    -0.434      
O        O      0.866450000000     0.575300000000     0.422366666667    -0.4        
O        O      0.863800000000     0.639000000000     0.424133333333    -0.432      
O        O      0.633550000000     0.924700000000     0.577633333333    -0.408      
O        O      0.636200000000     0.861000000000     0.575866666667    -0.436      
O        O      0.708850000000     0.575300000000     0.527433333333    -0.402      
O        O      0.775200000000     0.639000000000     0.483200000000    -0.434      
O        O      0.633550000000     0.500000000000     0.527433333333    -0.4        
O        O      0.636200000000     0.500000000000     0.483200000000    -0.439      
O        O      0.708850000000     0.500000000000     0.577633333333    -0.385      
O        O      0.775200000000     0.500000000000     0.575866666667    -0.427      
O        O      0.726000000000     0.949800000000     0.482533333333    -0.58       
O        O      0.826400000000     0.550200000000     0.482533333333    -0.576      
O        O      0.776200000000     0.949800000000     0.516000000000    -0.58       
O        O      0.776200000000     0.550200000000     0.449066666667    -0.577      
O        O      0.673600000000     0.949800000000     0.517466666667    -0.579      
O        O      0.774000000000     0.550200000000     0.517466666667    -0.574      
O        O      0.723800000000     0.550200000000     0.484000000000    -0.575      
O        O      0.723800000000     0.949800000000     0.550933333333    -0.579      
Hf       Hf     0.804135000000     0.500000000000     0.797243333333     1.499      
Hf       Hf     0.695865000000     0.500000000000     0.869423333333     1.484      
Hf       Hf     0.700120000000     0.500000000000     0.800076666667     1.37       
Hf       Hf     0.799880000000     0.500000000000     0.866590000000     1.368      
Hf       Hf     0.700120000000     0.900240000000     0.866586666667     1.372      
Hf       Hf     0.799880000000     0.599760000000     0.800080000000     1.372      
H        H      0.822100000000     0.500000000000     0.709133333333     0.03       
H        H      0.827950000000     0.500000000000     0.996766666667     0.059      
H        H      0.703200000000     0.500000000000     0.711066666667     0.03       
H        H      0.936300000000     0.500000000000     0.785266666667     0.023      
H        H      0.504850000000     0.500000000000     0.781366666667     0.081      
H        H      0.933400000000     0.500000000000     0.864533333333     0.033      
H        H      0.822100000000     0.885800000000     0.785266666667     0.037      
H        H      0.827950000000     0.823100000000     0.781366666667     0.061      
H        H      0.703200000000     0.769800000000     0.864533333333     0.044      
H        H      0.936300000000     0.614200000000     0.709133333333     0.045      
H        H      0.504850000000     0.676900000000     0.996766666667     0.05       
H        H      0.933400000000     0.730200000000     0.711066666667     0.053      
H        H      0.563700000000     0.885800000000     0.957533333333     0.024      
H        H      0.995150000000     0.823100000000     0.669900000000     0.078      
H        H      0.566600000000     0.769800000000     0.955600000000     0.036      
H        H      0.677900000000     0.614200000000     0.881400000000     0.037      
H        H      0.672050000000     0.676900000000     0.885300000000     0.062      
H        H      0.796800000000     0.730200000000     0.802133333333     0.044      
H        H      0.563700000000     0.500000000000     0.881400000000     0.055      
H        H      0.995150000000     0.500000000000     0.885300000000     0.05       
H        H      0.566600000000     0.500000000000     0.802133333333     0.062      
H        H      0.677900000000     0.500000000000     0.957533333333     0.077      
H        H      0.672050000000     0.500000000000     0.669900000000     0.031      
H        H      0.796800000000     0.500000000000     0.955600000000     0.048      
C        C      0.759950000000     0.500000000000     0.745033333333     0.417      
C        C      0.762300000000     0.500000000000     0.715200000000    -0.132      
C        C      0.799050000000     0.500000000000     0.700300000000     0.046      
C        C      0.802750000000     0.500000000000     0.672766666667    -0.113      
C        C      0.768750000000     0.500000000000     0.992300000000     0.066      
C        C      0.728300000000     0.500000000000     0.701533333333     0.015      
C        C      0.882450000000     0.500000000000     0.826700000000     0.409      
C        C      0.927200000000     0.500000000000     0.825133333333    -0.139      
C        C      0.949550000000     0.500000000000     0.800633333333     0.072      
C        C      0.990850000000     0.500000000000     0.798166666667    -0.146      
C        C      0.511550000000     0.500000000000     0.820833333333     0.061      
C        C      0.947700000000     0.500000000000     0.847800000000     0.011      
C        C      0.759950000000     0.877500000000     0.826700000000     0.396      
C        C      0.762300000000     0.835100000000     0.825133333333    -0.103      
C        C      0.799050000000     0.849500000000     0.800633333333     0.026      
C        C      0.802750000000     0.811900000000     0.798166666667    -0.099      
C        C      0.768750000000     0.757200000000     0.820833333333     0.026      
C        C      0.728300000000     0.780600000000     0.847800000000    -0.031      
C        C      0.882450000000     0.622500000000     0.745033333333     0.39       
C        C      0.927200000000     0.664900000000     0.715200000000    -0.085      
C        C      0.949550000000     0.650500000000     0.700300000000     0.004      
C        C      0.990850000000     0.688100000000     0.672766666667    -0.07       
C        C      0.511550000000     0.742800000000     0.992300000000    -0.007      
C        C      0.947700000000     0.719400000000     0.701533333333    -0.057      
C        C      0.617550000000     0.877500000000     0.921633333333     0.403      
C        C      0.572800000000     0.835100000000     0.951466666667    -0.123      
C        C      0.550450000000     0.849500000000     0.966366666667     0.053      
C        C      0.509150000000     0.811900000000     0.993900000000    -0.141      
C        C      0.988450000000     0.757200000000     0.674366666667     0.061      
C        C      0.552300000000     0.780600000000     0.965133333333    -0.007      
C        C      0.740050000000     0.622500000000     0.839966666667     0.396      
C        C      0.737700000000     0.664900000000     0.841533333333    -0.102      
C        C      0.700950000000     0.650500000000     0.866033333333     0.026      
C        C      0.697250000000     0.688100000000     0.868500000000    -0.099      
C        C      0.731250000000     0.742800000000     0.845833333333     0.026      
C        C      0.771700000000     0.719400000000     0.818866666667    -0.031      
C        C      0.617550000000     0.500000000000     0.839966666667     0.4        
C        C      0.572800000000     0.500000000000     0.841533333333    -0.085      
C        C      0.550450000000     0.500000000000     0.866033333333    -0.011      
C        C      0.509150000000     0.500000000000     0.868500000000    -0.071      
C        C      0.988450000000     0.500000000000     0.845833333333    -0.011      
C        C      0.552300000000     0.500000000000     0.818866666667    -0.068      
C        C      0.740050000000     0.500000000000     0.921633333333     0.358      
C        C      0.737700000000     0.500000000000     0.951466666667    -0.039      
C        C      0.700950000000     0.500000000000     0.966366666667    -0.076      
C        C      0.697250000000     0.500000000000     0.993900000000    -0.012      
C        C      0.731250000000     0.500000000000     0.674366666667    -0.034      
C        C      0.771700000000     0.500000000000     0.965133333333    -0.063      
O        O      0.791150000000     0.500000000000     0.755700000000    -0.412      
O        O      0.724800000000     0.500000000000     0.757466666667    -0.441      
O        O      0.866450000000     0.500000000000     0.805900000000    -0.409      
O        O      0.863800000000     0.500000000000     0.850133333333    -0.439      
O        O      0.791150000000     0.924700000000     0.805900000000    -0.404      
O        O      0.724800000000     0.861000000000     0.850133333333    -0.434      
O        O      0.866450000000     0.575300000000     0.755700000000    -0.4        
O        O      0.863800000000     0.639000000000     0.757466666667    -0.432      
O        O      0.633550000000     0.924700000000     0.910966666667    -0.408      
O        O      0.636200000000     0.861000000000     0.909200000000    -0.436      
O        O      0.708850000000     0.575300000000     0.860766666667    -0.402      
O        O      0.775200000000     0.639000000000     0.816533333333    -0.434      
O        O      0.633550000000     0.500000000000     0.860766666667    -0.4        
O        O      0.636200000000     0.500000000000     0.816533333333    -0.439      
O        O      0.708850000000     0.500000000000     0.910966666667    -0.385      
O        O      0.775200000000     0.500000000000     0.909200000000    -0.427      
O        O      0.726000000000     0.949800000000     0.815866666667    -0.58       
O        O      0.826400000000     0.550200000000     0.815866666667    -0.576      
O        O      0.776200000000     0.949800000000     0.849333333333    -0.58       
O        O      0.776200000000     0.550200000000     0.782400000000    -0.577      
O        O      0.673600000000     0.949800000000     0.850800000000    -0.579      
O        O      0.774000000000     0.550200000000     0.850800000000    -0.574      
O        O      0.723800000000     0.550200000000     0.817333333333    -0.575      
O        O      0.723800000000     0.949800000000     0.884266666667    -0.579      


