data_NUYWOU_clean_DDEC

_audit_creation_method RASPA-1.0
_audit_creation_date 2025-9-8
_audit_author_name ''

_cell_length_a    13.139
_cell_length_b    14.865
_cell_length_c    14.865
_cell_angle_alpha 90
_cell_angle_beta  90
_cell_angle_gamma 90
_cell_volume      34839.6

_symmetry_cell_setting          triclinic
_symmetry_space_group_name_Hall 'P 1'
_symmetry_space_group_name_H-M  'P 1'
_symmetry_Int_Tables_number     1

_symmetry_equiv_pos_as_xyz 'x,y,z'

loop_
_atom_site_label
_atom_site_type_symbol
_atom_site_fract_x
_atom_site_fract_y
_atom_site_fract_z
_atom_site_charge
C1       C      0.245600000000     0.133000000000     0.009000000000    -0.095719   
C1       C      0.245600000000     0.133000000000     0.509000000000    -0.095719   
C1       C      0.245600000000     0.633000000000     0.009000000000    -0.095719   
C1       C      0.245600000000     0.633000000000     0.509000000000    -0.095719   
C1       C      0.578933333333     0.133000000000     0.009000000000    -0.095719   
C1       C      0.578933333333     0.133000000000     0.509000000000    -0.095719   
C1       C      0.578933333333     0.633000000000     0.009000000000    -0.095719   
C1       C      0.578933333333     0.633000000000     0.509000000000    -0.095719   
C1       C      0.912266666667     0.133000000000     0.009000000000    -0.095719   
C1       C      0.912266666667     0.133000000000     0.509000000000    -0.095719   
C1       C      0.912266666667     0.633000000000     0.009000000000    -0.095719   
C1       C      0.912266666667     0.633000000000     0.509000000000    -0.095719   
C2       C      0.181300000000     0.446150000000     0.218400000000    -0.021528   
C2       C      0.181300000000     0.446150000000     0.718400000000    -0.021528   
C2       C      0.181300000000     0.946150000000     0.218400000000    -0.021528   
C2       C      0.181300000000     0.946150000000     0.718400000000    -0.021528   
C2       C      0.514633333333     0.446150000000     0.218400000000    -0.021528   
C2       C      0.514633333333     0.446150000000     0.718400000000    -0.021528   
C2       C      0.514633333333     0.946150000000     0.218400000000    -0.021528   
C2       C      0.514633333333     0.946150000000     0.718400000000    -0.021528   
C2       C      0.847966666667     0.446150000000     0.218400000000    -0.021528   
C2       C      0.847966666667     0.446150000000     0.718400000000    -0.021528   
C2       C      0.847966666667     0.946150000000     0.218400000000    -0.021528   
C2       C      0.847966666667     0.946150000000     0.718400000000    -0.021528   
C3       C      0.187066666667     0.446350000000     0.144350000000    -0.0954     
C3       C      0.187066666667     0.446350000000     0.644350000000    -0.0954     
C3       C      0.187066666667     0.946350000000     0.144350000000    -0.0954     
C3       C      0.187066666667     0.946350000000     0.644350000000    -0.0954     
C3       C      0.520400000000     0.446350000000     0.144350000000    -0.0954     
C3       C      0.520400000000     0.446350000000     0.644350000000    -0.0954     
C3       C      0.520400000000     0.946350000000     0.144350000000    -0.0954     
C3       C      0.520400000000     0.946350000000     0.644350000000    -0.0954     
C3       C      0.853733333333     0.446350000000     0.144350000000    -0.0954     
C3       C      0.853733333333     0.446350000000     0.644350000000    -0.0954     
C3       C      0.853733333333     0.946350000000     0.144350000000    -0.0954     
C3       C      0.853733333333     0.946350000000     0.644350000000    -0.0954     
C4       C      0.138033333333     0.489350000000     0.172950000000    -0.193003   
C4       C      0.138033333333     0.489350000000     0.672950000000    -0.193003   
C4       C      0.138033333333     0.989350000000     0.172950000000    -0.193003   
C4       C      0.138033333333     0.989350000000     0.672950000000    -0.193003   
C4       C      0.471366666667     0.489350000000     0.172950000000    -0.193003   
C4       C      0.471366666667     0.489350000000     0.672950000000    -0.193003   
C4       C      0.471366666667     0.989350000000     0.172950000000    -0.193003   
C4       C      0.471366666667     0.989350000000     0.672950000000    -0.193003   
C4       C      0.804700000000     0.489350000000     0.172950000000    -0.193003   
C4       C      0.804700000000     0.489350000000     0.672950000000    -0.193003   
C4       C      0.804700000000     0.989350000000     0.172950000000    -0.193003   
C4       C      0.804700000000     0.989350000000     0.672950000000    -0.193003   
C5       C      0.133400000000     0.025050000000     0.202000000000     0.550788   
C5       C      0.133400000000     0.025050000000     0.702000000000     0.550788   
C5       C      0.133400000000     0.525050000000     0.202000000000     0.550788   
C5       C      0.133400000000     0.525050000000     0.702000000000     0.550788   
C5       C      0.466733333333     0.025050000000     0.202000000000     0.550788   
C5       C      0.466733333333     0.025050000000     0.702000000000     0.550788   
C5       C      0.466733333333     0.525050000000     0.202000000000     0.550788   
C5       C      0.466733333333     0.525050000000     0.702000000000     0.550788   
C5       C      0.800066666667     0.025050000000     0.202000000000     0.550788   
C5       C      0.800066666667     0.025050000000     0.702000000000     0.550788   
C5       C      0.800066666667     0.525050000000     0.202000000000     0.550788   
C5       C      0.800066666667     0.525050000000     0.702000000000     0.550788   
C6       C      0.105333333333     0.053500000000     0.196150000000    -0.036765   
C6       C      0.105333333333     0.053500000000     0.696150000000    -0.036765   
C6       C      0.105333333333     0.553500000000     0.196150000000    -0.036765   
C6       C      0.105333333333     0.553500000000     0.696150000000    -0.036765   
C6       C      0.438666666667     0.053500000000     0.196150000000    -0.036765   
C6       C      0.438666666667     0.053500000000     0.696150000000    -0.036765   
C6       C      0.438666666667     0.553500000000     0.196150000000    -0.036765   
C6       C      0.438666666667     0.553500000000     0.696150000000    -0.036765   
C6       C      0.772000000000     0.053500000000     0.196150000000    -0.036765   
C6       C      0.772000000000     0.053500000000     0.696150000000    -0.036765   
C6       C      0.772000000000     0.553500000000     0.196150000000    -0.036765   
C6       C      0.772000000000     0.553500000000     0.696150000000    -0.036765   
C7       C      0.082800000000     0.045550000000     0.161250000000    -0.036786   
C7       C      0.082800000000     0.045550000000     0.661250000000    -0.036786   
C7       C      0.082800000000     0.545550000000     0.161250000000    -0.036786   
C7       C      0.082800000000     0.545550000000     0.661250000000    -0.036786   
C7       C      0.416133333333     0.045550000000     0.161250000000    -0.036786   
C7       C      0.416133333333     0.045550000000     0.661250000000    -0.036786   
C7       C      0.416133333333     0.545550000000     0.161250000000    -0.036786   
C7       C      0.416133333333     0.545550000000     0.661250000000    -0.036786   
C7       C      0.749466666667     0.045550000000     0.161250000000    -0.036786   
C7       C      0.749466666667     0.045550000000     0.661250000000    -0.036786   
C7       C      0.749466666667     0.545550000000     0.161250000000    -0.036786   
C7       C      0.749466666667     0.545550000000     0.661250000000    -0.036786   
C8       C      0.087733333333     0.009000000000     0.133000000000    -0.110678   
C8       C      0.087733333333     0.009000000000     0.633000000000    -0.110678   
C8       C      0.087733333333     0.509000000000     0.133000000000    -0.110678   
C8       C      0.087733333333     0.509000000000     0.633000000000    -0.110678   
C8       C      0.421066666667     0.009000000000     0.133000000000    -0.110678   
C8       C      0.421066666667     0.009000000000     0.633000000000    -0.110678   
C8       C      0.421066666667     0.509000000000     0.133000000000    -0.110678   
C8       C      0.421066666667     0.509000000000     0.633000000000    -0.110678   
C8       C      0.754400000000     0.009000000000     0.133000000000    -0.110678   
C8       C      0.754400000000     0.009000000000     0.633000000000    -0.110678   
C8       C      0.754400000000     0.509000000000     0.133000000000    -0.110678   
C8       C      0.754400000000     0.509000000000     0.633000000000    -0.110678   
C9       C      0.115933333333     0.480800000000     0.138150000000     0.085066   
C9       C      0.115933333333     0.480800000000     0.638150000000     0.085066   
C9       C      0.115933333333     0.980800000000     0.138150000000     0.085066   
C9       C      0.115933333333     0.980800000000     0.638150000000     0.085066   
C9       C      0.449266666667     0.480800000000     0.138150000000     0.085066   
C9       C      0.449266666667     0.480800000000     0.638150000000     0.085066   
C9       C      0.449266666667     0.980800000000     0.138150000000     0.085066   
C9       C      0.449266666667     0.980800000000     0.638150000000     0.085066   
C9       C      0.782600000000     0.480800000000     0.138150000000     0.085066   
C9       C      0.782600000000     0.480800000000     0.638150000000     0.085066   
C9       C      0.782600000000     0.980800000000     0.138150000000     0.085066   
C9       C      0.782600000000     0.980800000000     0.638150000000     0.085066   
C10      C      0.052700000000     0.075900000000     0.153700000000    -0.058894   
C10      C      0.052700000000     0.075900000000     0.653700000000    -0.058894   
C10      C      0.052700000000     0.575900000000     0.153700000000    -0.058894   
C10      C      0.052700000000     0.575900000000     0.653700000000    -0.058894   
C10      C      0.386033333333     0.075900000000     0.153700000000    -0.058894   
C10      C      0.386033333333     0.075900000000     0.653700000000    -0.058894   
C10      C      0.386033333333     0.575900000000     0.153700000000    -0.058894   
C10      C      0.386033333333     0.575900000000     0.653700000000    -0.058894   
C10      C      0.719366666667     0.075900000000     0.153700000000    -0.058894   
C10      C      0.719366666667     0.075900000000     0.653700000000    -0.058894   
C10      C      0.719366666667     0.575900000000     0.153700000000    -0.058894   
C10      C      0.719366666667     0.575900000000     0.653700000000    -0.058894   
C11      C      0.241666666667     0.429000000000     0.018200000000    -0.140297   
C11      C      0.241666666667     0.429000000000     0.518200000000    -0.140297   
C11      C      0.241666666667     0.929000000000     0.018200000000    -0.140297   
C11      C      0.241666666667     0.929000000000     0.518200000000    -0.140297   
C11      C      0.575000000000     0.429000000000     0.018200000000    -0.140297   
C11      C      0.575000000000     0.429000000000     0.518200000000    -0.140297   
C11      C      0.575000000000     0.929000000000     0.018200000000    -0.140297   
C11      C      0.575000000000     0.929000000000     0.518200000000    -0.140297   
C11      C      0.908333333333     0.429000000000     0.018200000000    -0.140297   
C11      C      0.908333333333     0.429000000000     0.518200000000    -0.140297   
C11      C      0.908333333333     0.929000000000     0.018200000000    -0.140297   
C11      C      0.908333333333     0.929000000000     0.518200000000    -0.140297   
C12      C      0.241333333333     0.461250000000     0.481150000000     0.074845   
C12      C      0.241333333333     0.461250000000     0.981150000000     0.074845   
C12      C      0.241333333333     0.961250000000     0.481150000000     0.074845   
C12      C      0.241333333333     0.961250000000     0.981150000000     0.074845   
C12      C      0.574666666667     0.461250000000     0.481150000000     0.074845   
C12      C      0.574666666667     0.461250000000     0.981150000000     0.074845   
C12      C      0.574666666667     0.961250000000     0.481150000000     0.074845   
C12      C      0.574666666667     0.961250000000     0.981150000000     0.074845   
C12      C      0.908000000000     0.461250000000     0.481150000000     0.074845   
C12      C      0.908000000000     0.461250000000     0.981150000000     0.074845   
C12      C      0.908000000000     0.961250000000     0.481150000000     0.074845   
C12      C      0.908000000000     0.961250000000     0.981150000000     0.074845   
C13      C      0.291300000000     0.293200000000     0.078500000000     0.550788   
C13      C      0.291300000000     0.293200000000     0.578500000000     0.550788   
C13      C      0.291300000000     0.793200000000     0.078500000000     0.550788   
C13      C      0.291300000000     0.793200000000     0.578500000000     0.550788   
C13      C      0.624633333333     0.293200000000     0.078500000000     0.550788   
C13      C      0.624633333333     0.293200000000     0.578500000000     0.550788   
C13      C      0.624633333333     0.793200000000     0.078500000000     0.550788   
C13      C      0.624633333333     0.793200000000     0.578500000000     0.550788   
C13      C      0.957966666667     0.293200000000     0.078500000000     0.550788   
C13      C      0.957966666667     0.293200000000     0.578500000000     0.550788   
C13      C      0.957966666667     0.793200000000     0.078500000000     0.550788   
C13      C      0.957966666667     0.793200000000     0.578500000000     0.550788   
C14      C      0.318700000000     0.281600000000     0.053850000000    -0.193006   
C14      C      0.318700000000     0.281600000000     0.553850000000    -0.193006   
C14      C      0.318700000000     0.781600000000     0.053850000000    -0.193006   
C14      C      0.318700000000     0.781600000000     0.553850000000    -0.193006   
C14      C      0.652033333333     0.281600000000     0.053850000000    -0.193006   
C14      C      0.652033333333     0.281600000000     0.553850000000    -0.193006   
C14      C      0.652033333333     0.781600000000     0.053850000000    -0.193006   
C14      C      0.652033333333     0.781600000000     0.553850000000    -0.193006   
C14      C      0.985366666667     0.281600000000     0.053850000000    -0.193006   
C14      C      0.985366666667     0.281600000000     0.553850000000    -0.193006   
C14      C      0.985366666667     0.781600000000     0.053850000000    -0.193006   
C14      C      0.985366666667     0.781600000000     0.553850000000    -0.193006   
C15      C      0.312933333333     0.355650000000     0.053650000000    -0.0954     
C15      C      0.312933333333     0.355650000000     0.553650000000    -0.0954     
C15      C      0.312933333333     0.855650000000     0.053650000000    -0.0954     
C15      C      0.312933333333     0.855650000000     0.553650000000    -0.0954     
C15      C      0.646266666667     0.355650000000     0.053650000000    -0.0954     
C15      C      0.646266666667     0.355650000000     0.553650000000    -0.0954     
C15      C      0.646266666667     0.855650000000     0.053650000000    -0.0954     
C15      C      0.646266666667     0.855650000000     0.553650000000    -0.0954     
C15      C      0.979600000000     0.355650000000     0.053650000000    -0.0954     
C15      C      0.979600000000     0.355650000000     0.553650000000    -0.0954     
C15      C      0.979600000000     0.855650000000     0.053650000000    -0.0954     
C15      C      0.979600000000     0.855650000000     0.553650000000    -0.0954     
C16      C      0.028633333333     0.327050000000     0.010650000000    -0.021528   
C16      C      0.028633333333     0.327050000000     0.510650000000    -0.021528   
C16      C      0.028633333333     0.827050000000     0.010650000000    -0.021528   
C16      C      0.028633333333     0.827050000000     0.510650000000    -0.021528   
C16      C      0.361966666667     0.327050000000     0.010650000000    -0.021528   
C16      C      0.361966666667     0.327050000000     0.510650000000    -0.021528   
C16      C      0.361966666667     0.827050000000     0.010650000000    -0.021528   
C16      C      0.361966666667     0.827050000000     0.510650000000    -0.021528   
C16      C      0.695300000000     0.327050000000     0.010650000000    -0.021528   
C16      C      0.695300000000     0.327050000000     0.510650000000    -0.021528   
C16      C      0.695300000000     0.827050000000     0.010650000000    -0.021528   
C16      C      0.695300000000     0.827050000000     0.510650000000    -0.021528   
C17      C      0.033266666667     0.298000000000     0.474950000000    -0.095718   
C17      C      0.033266666667     0.298000000000     0.974950000000    -0.095718   
C17      C      0.033266666667     0.798000000000     0.474950000000    -0.095718   
C17      C      0.033266666667     0.798000000000     0.974950000000    -0.095718   
C17      C      0.366600000000     0.298000000000     0.474950000000    -0.095718   
C17      C      0.366600000000     0.298000000000     0.974950000000    -0.095718   
C17      C      0.366600000000     0.798000000000     0.474950000000    -0.095718   
C17      C      0.366600000000     0.798000000000     0.974950000000    -0.095718   
C17      C      0.699933333333     0.298000000000     0.474950000000    -0.095718   
C17      C      0.699933333333     0.298000000000     0.974950000000    -0.095718   
C17      C      0.699933333333     0.798000000000     0.474950000000    -0.095718   
C17      C      0.699933333333     0.798000000000     0.974950000000    -0.095718   
C18      C      0.061333333333     0.303850000000     0.446500000000    -0.191846   
C18      C      0.061333333333     0.303850000000     0.946500000000    -0.191846   
C18      C      0.061333333333     0.803850000000     0.446500000000    -0.191846   
C18      C      0.061333333333     0.803850000000     0.946500000000    -0.191846   
C18      C      0.394666666667     0.303850000000     0.446500000000    -0.191846   
C18      C      0.394666666667     0.303850000000     0.946500000000    -0.191846   
C18      C      0.394666666667     0.803850000000     0.446500000000    -0.191846   
C18      C      0.394666666667     0.803850000000     0.946500000000    -0.191846   
C18      C      0.728000000000     0.303850000000     0.446500000000    -0.191846   
C18      C      0.728000000000     0.303850000000     0.946500000000    -0.191846   
C18      C      0.728000000000     0.803850000000     0.446500000000    -0.191846   
C18      C      0.728000000000     0.803850000000     0.946500000000    -0.191846   
C19      C      0.083866666667     0.338750000000     0.454450000000     0.176699   
C19      C      0.083866666667     0.338750000000     0.954450000000     0.176699   
C19      C      0.083866666667     0.838750000000     0.454450000000     0.176699   
C19      C      0.083866666667     0.838750000000     0.954450000000     0.176699   
C19      C      0.417200000000     0.338750000000     0.454450000000     0.176699   
C19      C      0.417200000000     0.338750000000     0.954450000000     0.176699   
C19      C      0.417200000000     0.838750000000     0.454450000000     0.176699   
C19      C      0.417200000000     0.838750000000     0.954450000000     0.176699   
C19      C      0.750533333333     0.338750000000     0.454450000000     0.176699   
C19      C      0.750533333333     0.338750000000     0.954450000000     0.176699   
C19      C      0.750533333333     0.838750000000     0.454450000000     0.176699   
C19      C      0.750533333333     0.838750000000     0.954450000000     0.176699   
C20      C      0.078933333333     0.367000000000     0.491000000000     0.074844   
C20      C      0.078933333333     0.367000000000     0.991000000000     0.074844   
C20      C      0.078933333333     0.867000000000     0.491000000000     0.074844   
C20      C      0.078933333333     0.867000000000     0.991000000000     0.074844   
C20      C      0.412266666667     0.367000000000     0.491000000000     0.074844   
C20      C      0.412266666667     0.367000000000     0.991000000000     0.074844   
C20      C      0.412266666667     0.867000000000     0.491000000000     0.074844   
C20      C      0.412266666667     0.867000000000     0.991000000000     0.074844   
C20      C      0.745600000000     0.367000000000     0.491000000000     0.074844   
C20      C      0.745600000000     0.367000000000     0.991000000000     0.074844   
C20      C      0.745600000000     0.867000000000     0.491000000000     0.074844   
C20      C      0.745600000000     0.867000000000     0.991000000000     0.074844   
C21      C      0.050733333333     0.361850000000     0.019200000000     0.085066   
C21      C      0.050733333333     0.361850000000     0.519200000000     0.085066   
C21      C      0.050733333333     0.861850000000     0.019200000000     0.085066   
C21      C      0.050733333333     0.861850000000     0.519200000000     0.085066   
C21      C      0.384066666667     0.361850000000     0.019200000000     0.085066   
C21      C      0.384066666667     0.361850000000     0.519200000000     0.085066   
C21      C      0.384066666667     0.861850000000     0.019200000000     0.085066   
C21      C      0.384066666667     0.861850000000     0.519200000000     0.085066   
C21      C      0.717400000000     0.361850000000     0.019200000000     0.085066   
C21      C      0.717400000000     0.361850000000     0.519200000000     0.085066   
C21      C      0.717400000000     0.861850000000     0.019200000000     0.085066   
C21      C      0.717400000000     0.861850000000     0.519200000000     0.085066   
C22      C      0.113966666667     0.346300000000     0.424100000000    -0.036786   
C22      C      0.113966666667     0.346300000000     0.924100000000    -0.036786   
C22      C      0.113966666667     0.846300000000     0.424100000000    -0.036786   
C22      C      0.113966666667     0.846300000000     0.924100000000    -0.036786   
C22      C      0.447300000000     0.346300000000     0.424100000000    -0.036786   
C22      C      0.447300000000     0.346300000000     0.924100000000    -0.036786   
C22      C      0.447300000000     0.846300000000     0.424100000000    -0.036786   
C22      C      0.447300000000     0.846300000000     0.924100000000    -0.036786   
C22      C      0.780633333333     0.346300000000     0.424100000000    -0.036786   
C22      C      0.780633333333     0.346300000000     0.924100000000    -0.036786   
C22      C      0.780633333333     0.846300000000     0.424100000000    -0.036786   
C22      C      0.780633333333     0.846300000000     0.924100000000    -0.036786   
C23      C      0.208700000000     0.421500000000     0.206800000000    -0.140297   
C23      C      0.208700000000     0.421500000000     0.706800000000    -0.140297   
C23      C      0.208700000000     0.921500000000     0.206800000000    -0.140297   
C23      C      0.208700000000     0.921500000000     0.706800000000    -0.140297   
C23      C      0.542033333333     0.421500000000     0.206800000000    -0.140297   
C23      C      0.542033333333     0.421500000000     0.706800000000    -0.140297   
C23      C      0.542033333333     0.921500000000     0.206800000000    -0.140297   
C23      C      0.542033333333     0.921500000000     0.706800000000    -0.140297   
C23      C      0.875366666667     0.421500000000     0.206800000000    -0.140297   
C23      C      0.875366666667     0.421500000000     0.706800000000    -0.140297   
C23      C      0.875366666667     0.921500000000     0.206800000000    -0.140297   
C23      C      0.875366666667     0.921500000000     0.706800000000    -0.140297   
C24      C      0.292033333333     0.043200000000     0.171500000000     0.074845   
C24      C      0.292033333333     0.043200000000     0.671500000000     0.074845   
C24      C      0.292033333333     0.543200000000     0.171500000000     0.074845   
C24      C      0.292033333333     0.543200000000     0.671500000000     0.074845   
C24      C      0.625366666667     0.043200000000     0.171500000000     0.074845   
C24      C      0.625366666667     0.043200000000     0.671500000000     0.074845   
C24      C      0.625366666667     0.543200000000     0.171500000000     0.074845   
C24      C      0.625366666667     0.543200000000     0.671500000000     0.074845   
C24      C      0.958700000000     0.043200000000     0.171500000000     0.074845   
C24      C      0.958700000000     0.043200000000     0.671500000000     0.074845   
C24      C      0.958700000000     0.543200000000     0.171500000000     0.074845   
C24      C      0.958700000000     0.543200000000     0.671500000000     0.074845   
C25      C      0.264633333333     0.031600000000     0.196150000000     0.550788   
C25      C      0.264633333333     0.031600000000     0.696150000000     0.550788   
C25      C      0.264633333333     0.531600000000     0.196150000000     0.550788   
C25      C      0.264633333333     0.531600000000     0.696150000000     0.550788   
C25      C      0.597966666667     0.031600000000     0.196150000000     0.550788   
C25      C      0.597966666667     0.031600000000     0.696150000000     0.550788   
C25      C      0.597966666667     0.531600000000     0.196150000000     0.550788   
C25      C      0.597966666667     0.531600000000     0.696150000000     0.550788   
C25      C      0.931300000000     0.031600000000     0.196150000000     0.550788   
C25      C      0.931300000000     0.031600000000     0.696150000000     0.550788   
C25      C      0.931300000000     0.531600000000     0.196150000000     0.550788   
C25      C      0.931300000000     0.531600000000     0.696150000000     0.550788   
C26      C      0.270400000000     0.105650000000     0.196350000000    -0.193006   
C26      C      0.270400000000     0.105650000000     0.696350000000    -0.193006   
C26      C      0.270400000000     0.605650000000     0.196350000000    -0.193006   
C26      C      0.270400000000     0.605650000000     0.696350000000    -0.193006   
C26      C      0.603733333333     0.105650000000     0.196350000000    -0.193006   
C26      C      0.603733333333     0.105650000000     0.696350000000    -0.193006   
C26      C      0.603733333333     0.605650000000     0.196350000000    -0.193006   
C26      C      0.603733333333     0.605650000000     0.696350000000    -0.193006   
C26      C      0.937066666667     0.105650000000     0.196350000000    -0.193006   
C26      C      0.937066666667     0.105650000000     0.696350000000    -0.193006   
C26      C      0.937066666667     0.605650000000     0.196350000000    -0.193006   
C26      C      0.937066666667     0.605650000000     0.696350000000    -0.193006   
C27      C      0.000000000000     0.254950000000     0.254950000000    -0.0954     
C27      C      0.000000000000     0.254950000000     0.754950000000    -0.0954     
C27      C      0.000000000000     0.754950000000     0.254950000000    -0.0954     
C27      C      0.000000000000     0.754950000000     0.754950000000    -0.0954     
C27      C      0.333333333333     0.254950000000     0.254950000000    -0.0954     
C27      C      0.333333333333     0.254950000000     0.754950000000    -0.0954     
C27      C      0.333333333333     0.754950000000     0.254950000000    -0.0954     
C27      C      0.333333333333     0.754950000000     0.754950000000    -0.0954     
C27      C      0.666666666667     0.254950000000     0.254950000000    -0.0954     
C27      C      0.666666666667     0.254950000000     0.754950000000    -0.0954     
C27      C      0.666666666667     0.754950000000     0.254950000000    -0.0954     
C27      C      0.666666666667     0.754950000000     0.754950000000    -0.0954     
C28      C      0.008666666667     0.211250000000     0.268850000000    -0.021528   
C28      C      0.008666666667     0.211250000000     0.768850000000    -0.021528   
C28      C      0.008666666667     0.711250000000     0.268850000000    -0.021528   
C28      C      0.008666666667     0.711250000000     0.768850000000    -0.021528   
C28      C      0.342000000000     0.211250000000     0.268850000000    -0.021528   
C28      C      0.342000000000     0.211250000000     0.768850000000    -0.021528   
C28      C      0.342000000000     0.711250000000     0.268850000000    -0.021528   
C28      C      0.342000000000     0.711250000000     0.768850000000    -0.021528   
C28      C      0.675333333333     0.211250000000     0.268850000000    -0.021528   
C28      C      0.675333333333     0.211250000000     0.768850000000    -0.021528   
C28      C      0.675333333333     0.711250000000     0.268850000000    -0.021528   
C28      C      0.675333333333     0.711250000000     0.768850000000    -0.021528   
C29      C      0.008333333333     0.179000000000     0.231800000000    -0.095718   
C29      C      0.008333333333     0.179000000000     0.731800000000    -0.095718   
C29      C      0.008333333333     0.679000000000     0.231800000000    -0.095718   
C29      C      0.008333333333     0.679000000000     0.731800000000    -0.095718   
C29      C      0.341666666667     0.179000000000     0.231800000000    -0.095718   
C29      C      0.341666666667     0.179000000000     0.731800000000    -0.095718   
C29      C      0.341666666667     0.679000000000     0.231800000000    -0.095718   
C29      C      0.341666666667     0.679000000000     0.731800000000    -0.095718   
C29      C      0.675000000000     0.179000000000     0.231800000000    -0.095718   
C29      C      0.675000000000     0.179000000000     0.731800000000    -0.095718   
C29      C      0.675000000000     0.679000000000     0.231800000000    -0.095718   
C29      C      0.675000000000     0.679000000000     0.731800000000    -0.095718   
C30      C      0.197300000000     0.325900000000     0.096300000000    -0.191846   
C30      C      0.197300000000     0.325900000000     0.596300000000    -0.191846   
C30      C      0.197300000000     0.825900000000     0.096300000000    -0.191846   
C30      C      0.197300000000     0.825900000000     0.596300000000    -0.191846   
C30      C      0.530633333333     0.325900000000     0.096300000000    -0.191846   
C30      C      0.530633333333     0.325900000000     0.596300000000    -0.191846   
C30      C      0.530633333333     0.825900000000     0.096300000000    -0.191846   
C30      C      0.530633333333     0.825900000000     0.596300000000    -0.191846   
C30      C      0.863966666667     0.325900000000     0.096300000000    -0.191846   
C30      C      0.863966666667     0.325900000000     0.596300000000    -0.191846   
C30      C      0.863966666667     0.825900000000     0.096300000000    -0.191846   
C30      C      0.863966666667     0.825900000000     0.596300000000    -0.191846   
C31      C      0.134066666667     0.230800000000     0.111850000000     0.176699   
C31      C      0.134066666667     0.230800000000     0.611850000000     0.176699   
C31      C      0.134066666667     0.730800000000     0.111850000000     0.176699   
C31      C      0.134066666667     0.730800000000     0.611850000000     0.176699   
C31      C      0.467400000000     0.230800000000     0.111850000000     0.176699   
C31      C      0.467400000000     0.230800000000     0.611850000000     0.176699   
C31      C      0.467400000000     0.730800000000     0.111850000000     0.176699   
C31      C      0.467400000000     0.730800000000     0.611850000000     0.176699   
C31      C      0.800733333333     0.230800000000     0.111850000000     0.176699   
C31      C      0.800733333333     0.230800000000     0.611850000000     0.176699   
C31      C      0.800733333333     0.730800000000     0.111850000000     0.176699   
C31      C      0.800733333333     0.730800000000     0.611850000000     0.176699   
C32      C      0.162266666667     0.259000000000     0.117000000000    -0.110678   
C32      C      0.162266666667     0.259000000000     0.617000000000    -0.110678   
C32      C      0.162266666667     0.759000000000     0.117000000000    -0.110678   
C32      C      0.162266666667     0.759000000000     0.617000000000    -0.110678   
C32      C      0.495600000000     0.259000000000     0.117000000000    -0.110678   
C32      C      0.495600000000     0.259000000000     0.617000000000    -0.110678   
C32      C      0.495600000000     0.759000000000     0.117000000000    -0.110678   
C32      C      0.495600000000     0.759000000000     0.617000000000    -0.110678   
C32      C      0.828933333333     0.259000000000     0.117000000000    -0.110678   
C32      C      0.828933333333     0.259000000000     0.617000000000    -0.110678   
C32      C      0.828933333333     0.759000000000     0.117000000000    -0.110678   
C32      C      0.828933333333     0.759000000000     0.617000000000    -0.110678   
C33      C      0.167200000000     0.295550000000     0.088750000000    -0.021528   
C33      C      0.167200000000     0.295550000000     0.588750000000    -0.021528   
C33      C      0.167200000000     0.795550000000     0.088750000000    -0.021528   
C33      C      0.167200000000     0.795550000000     0.588750000000    -0.021528   
C33      C      0.500533333333     0.295550000000     0.088750000000    -0.021528   
C33      C      0.500533333333     0.295550000000     0.588750000000    -0.021528   
C33      C      0.500533333333     0.795550000000     0.088750000000    -0.021528   
C33      C      0.500533333333     0.795550000000     0.588750000000    -0.021528   
C33      C      0.833866666667     0.295550000000     0.088750000000    -0.021528   
C33      C      0.833866666667     0.295550000000     0.588750000000    -0.021528   
C33      C      0.833866666667     0.795550000000     0.088750000000    -0.021528   
C33      C      0.833866666667     0.795550000000     0.588750000000    -0.021528   
C34      C      0.144666666667     0.303500000000     0.053850000000    -0.140297   
C34      C      0.144666666667     0.303500000000     0.553850000000    -0.140297   
C34      C      0.144666666667     0.803500000000     0.053850000000    -0.140297   
C34      C      0.144666666667     0.803500000000     0.553850000000    -0.140297   
C34      C      0.478000000000     0.303500000000     0.053850000000    -0.140297   
C34      C      0.478000000000     0.303500000000     0.553850000000    -0.140297   
C34      C      0.478000000000     0.803500000000     0.053850000000    -0.140297   
C34      C      0.478000000000     0.803500000000     0.553850000000    -0.140297   
C34      C      0.811333333333     0.303500000000     0.053850000000    -0.140297   
C34      C      0.811333333333     0.303500000000     0.553850000000    -0.140297   
C34      C      0.811333333333     0.803500000000     0.053850000000    -0.140297   
C34      C      0.811333333333     0.803500000000     0.553850000000    -0.140297   
C35      C      0.116600000000     0.275050000000     0.048000000000    -0.140298   
C35      C      0.116600000000     0.275050000000     0.548000000000    -0.140298   
C35      C      0.116600000000     0.775050000000     0.048000000000    -0.140298   
C35      C      0.116600000000     0.775050000000     0.548000000000    -0.140298   
C35      C      0.449933333333     0.275050000000     0.048000000000    -0.140298   
C35      C      0.449933333333     0.275050000000     0.548000000000    -0.140298   
C35      C      0.449933333333     0.775050000000     0.048000000000    -0.140298   
C35      C      0.449933333333     0.775050000000     0.548000000000    -0.140298   
C35      C      0.783266666667     0.275050000000     0.048000000000    -0.140298   
C35      C      0.783266666667     0.275050000000     0.548000000000    -0.140298   
C35      C      0.783266666667     0.775050000000     0.048000000000    -0.140298   
C35      C      0.783266666667     0.775050000000     0.548000000000    -0.140298   
C36      C      0.111966666667     0.239350000000     0.077050000000     0.085066   
C36      C      0.111966666667     0.239350000000     0.577050000000     0.085066   
C36      C      0.111966666667     0.739350000000     0.077050000000     0.085066   
C36      C      0.111966666667     0.739350000000     0.577050000000     0.085066   
C36      C      0.445300000000     0.239350000000     0.077050000000     0.085066   
C36      C      0.445300000000     0.239350000000     0.577050000000     0.085066   
C36      C      0.445300000000     0.739350000000     0.077050000000     0.085066   
C36      C      0.445300000000     0.739350000000     0.577050000000     0.085066   
C36      C      0.778633333333     0.239350000000     0.077050000000     0.085066   
C36      C      0.778633333333     0.239350000000     0.577050000000     0.085066   
C36      C      0.778633333333     0.739350000000     0.077050000000     0.085066   
C36      C      0.778633333333     0.739350000000     0.577050000000     0.085066   
C37      C      0.258333333333     0.481800000000     0.071000000000    -0.110698   
C37      C      0.258333333333     0.481800000000     0.571000000000    -0.110698   
C37      C      0.258333333333     0.981800000000     0.071000000000    -0.110698   
C37      C      0.258333333333     0.981800000000     0.571000000000    -0.110698   
C37      C      0.591666666667     0.481800000000     0.071000000000    -0.110698   
C37      C      0.591666666667     0.481800000000     0.571000000000    -0.110698   
C37      C      0.591666666667     0.981800000000     0.071000000000    -0.110698   
C37      C      0.591666666667     0.981800000000     0.571000000000    -0.110698   
C37      C      0.925000000000     0.481800000000     0.071000000000    -0.110698   
C37      C      0.925000000000     0.481800000000     0.571000000000    -0.110698   
C37      C      0.925000000000     0.981800000000     0.071000000000    -0.110698   
C37      C      0.925000000000     0.981800000000     0.571000000000    -0.110698   
C38      C      0.062933333333     0.196350000000     0.105650000000    -0.036765   
C38      C      0.062933333333     0.196350000000     0.605650000000    -0.036765   
C38      C      0.062933333333     0.696350000000     0.105650000000    -0.036765   
C38      C      0.062933333333     0.696350000000     0.605650000000    -0.036765   
C38      C      0.396266666667     0.196350000000     0.105650000000    -0.036765   
C38      C      0.396266666667     0.196350000000     0.605650000000    -0.036765   
C38      C      0.396266666667     0.696350000000     0.105650000000    -0.036765   
C38      C      0.396266666667     0.696350000000     0.605650000000    -0.036765   
C38      C      0.729600000000     0.196350000000     0.105650000000    -0.036765   
C38      C      0.729600000000     0.196350000000     0.605650000000    -0.036765   
C38      C      0.729600000000     0.696350000000     0.105650000000    -0.036765   
C38      C      0.729600000000     0.696350000000     0.605650000000    -0.036765   
C39      C      0.041300000000     0.171500000000     0.043200000000    -0.036786   
C39      C      0.041300000000     0.171500000000     0.543200000000    -0.036786   
C39      C      0.041300000000     0.671500000000     0.043200000000    -0.036786   
C39      C      0.041300000000     0.671500000000     0.543200000000    -0.036786   
C39      C      0.374633333333     0.171500000000     0.043200000000    -0.036786   
C39      C      0.374633333333     0.171500000000     0.543200000000    -0.036786   
C39      C      0.374633333333     0.671500000000     0.043200000000    -0.036786   
C39      C      0.374633333333     0.671500000000     0.543200000000    -0.036786   
C39      C      0.707966666667     0.171500000000     0.043200000000    -0.036786   
C39      C      0.707966666667     0.171500000000     0.543200000000    -0.036786   
C39      C      0.707966666667     0.671500000000     0.043200000000    -0.036786   
C39      C      0.707966666667     0.671500000000     0.543200000000    -0.036786   
C40      C      0.324666666667     0.268850000000     0.211250000000    -0.110678   
C40      C      0.324666666667     0.268850000000     0.711250000000    -0.110678   
C40      C      0.324666666667     0.768850000000     0.211250000000    -0.110678   
C40      C      0.324666666667     0.768850000000     0.711250000000    -0.110678   
C40      C      0.658000000000     0.268850000000     0.211250000000    -0.110678   
C40      C      0.658000000000     0.268850000000     0.711250000000    -0.110678   
C40      C      0.658000000000     0.768850000000     0.211250000000    -0.110678   
C40      C      0.658000000000     0.768850000000     0.711250000000    -0.110678   
C40      C      0.991333333333     0.268850000000     0.211250000000    -0.110678   
C40      C      0.991333333333     0.268850000000     0.711250000000    -0.110678   
C40      C      0.991333333333     0.768850000000     0.211250000000    -0.110678   
C40      C      0.991333333333     0.768850000000     0.711250000000    -0.110678   
C41      C      0.325000000000     0.231800000000     0.179000000000     0.085066   
C41      C      0.325000000000     0.231800000000     0.679000000000     0.085066   
C41      C      0.325000000000     0.731800000000     0.179000000000     0.085066   
C41      C      0.325000000000     0.731800000000     0.679000000000     0.085066   
C41      C      0.658333333333     0.231800000000     0.179000000000     0.085066   
C41      C      0.658333333333     0.231800000000     0.679000000000     0.085066   
C41      C      0.658333333333     0.731800000000     0.179000000000     0.085066   
C41      C      0.658333333333     0.731800000000     0.679000000000     0.085066   
C41      C      0.991666666667     0.231800000000     0.179000000000     0.085066   
C41      C      0.991666666667     0.231800000000     0.679000000000     0.085066   
C41      C      0.991666666667     0.731800000000     0.179000000000     0.085066   
C41      C      0.991666666667     0.731800000000     0.679000000000     0.085066   
C42      C      0.136033333333     0.096300000000     0.325900000000     0.176694   
C42      C      0.136033333333     0.096300000000     0.825900000000     0.176694   
C42      C      0.136033333333     0.596300000000     0.325900000000     0.176694   
C42      C      0.136033333333     0.596300000000     0.825900000000     0.176694   
C42      C      0.469366666667     0.096300000000     0.325900000000     0.176694   
C42      C      0.469366666667     0.096300000000     0.825900000000     0.176694   
C42      C      0.469366666667     0.596300000000     0.325900000000     0.176694   
C42      C      0.469366666667     0.596300000000     0.825900000000     0.176694   
C42      C      0.802700000000     0.096300000000     0.325900000000     0.176694   
C42      C      0.802700000000     0.096300000000     0.825900000000     0.176694   
C42      C      0.802700000000     0.596300000000     0.325900000000     0.176694   
C42      C      0.802700000000     0.596300000000     0.825900000000     0.176694   
C43      C      0.199266666667     0.111850000000     0.230800000000    -0.191842   
C43      C      0.199266666667     0.111850000000     0.730800000000    -0.191842   
C43      C      0.199266666667     0.611850000000     0.230800000000    -0.191842   
C43      C      0.199266666667     0.611850000000     0.730800000000    -0.191842   
C43      C      0.532600000000     0.111850000000     0.230800000000    -0.191842   
C43      C      0.532600000000     0.111850000000     0.730800000000    -0.191842   
C43      C      0.532600000000     0.611850000000     0.230800000000    -0.191842   
C43      C      0.532600000000     0.611850000000     0.730800000000    -0.191842   
C43      C      0.865933333333     0.111850000000     0.230800000000    -0.191842   
C43      C      0.865933333333     0.111850000000     0.730800000000    -0.191842   
C43      C      0.865933333333     0.611850000000     0.230800000000    -0.191842   
C43      C      0.865933333333     0.611850000000     0.730800000000    -0.191842   
C44      C      0.171066666667     0.117000000000     0.259000000000    -0.095719   
C44      C      0.171066666667     0.117000000000     0.759000000000    -0.095719   
C44      C      0.171066666667     0.617000000000     0.259000000000    -0.095719   
C44      C      0.171066666667     0.617000000000     0.759000000000    -0.095719   
C44      C      0.504400000000     0.117000000000     0.259000000000    -0.095719   
C44      C      0.504400000000     0.117000000000     0.759000000000    -0.095719   
C44      C      0.504400000000     0.617000000000     0.259000000000    -0.095719   
C44      C      0.504400000000     0.617000000000     0.759000000000    -0.095719   
C44      C      0.837733333333     0.117000000000     0.259000000000    -0.095719   
C44      C      0.837733333333     0.117000000000     0.759000000000    -0.095719   
C44      C      0.837733333333     0.617000000000     0.259000000000    -0.095719   
C44      C      0.837733333333     0.617000000000     0.759000000000    -0.095719   
C45      C      0.166133333333     0.088750000000     0.295550000000    -0.021528   
C45      C      0.166133333333     0.088750000000     0.795550000000    -0.021528   
C45      C      0.166133333333     0.588750000000     0.295550000000    -0.021528   
C45      C      0.166133333333     0.588750000000     0.795550000000    -0.021528   
C45      C      0.499466666667     0.088750000000     0.295550000000    -0.021528   
C45      C      0.499466666667     0.088750000000     0.795550000000    -0.021528   
C45      C      0.499466666667     0.588750000000     0.295550000000    -0.021528   
C45      C      0.499466666667     0.588750000000     0.795550000000    -0.021528   
C45      C      0.832800000000     0.088750000000     0.295550000000    -0.021528   
C45      C      0.832800000000     0.088750000000     0.795550000000    -0.021528   
C45      C      0.832800000000     0.588750000000     0.295550000000    -0.021528   
C45      C      0.832800000000     0.588750000000     0.795550000000    -0.021528   
C46      C      0.188666666667     0.053850000000     0.303500000000    -0.0954     
C46      C      0.188666666667     0.053850000000     0.803500000000    -0.0954     
C46      C      0.188666666667     0.553850000000     0.303500000000    -0.0954     
C46      C      0.188666666667     0.553850000000     0.803500000000    -0.0954     
C46      C      0.522000000000     0.053850000000     0.303500000000    -0.0954     
C46      C      0.522000000000     0.053850000000     0.803500000000    -0.0954     
C46      C      0.522000000000     0.553850000000     0.303500000000    -0.0954     
C46      C      0.522000000000     0.553850000000     0.803500000000    -0.0954     
C46      C      0.855333333333     0.053850000000     0.303500000000    -0.0954     
C46      C      0.855333333333     0.053850000000     0.803500000000    -0.0954     
C46      C      0.855333333333     0.553850000000     0.303500000000    -0.0954     
C46      C      0.855333333333     0.553850000000     0.803500000000    -0.0954     
C47      C      0.216733333333     0.048000000000     0.275050000000    -0.193003   
C47      C      0.216733333333     0.048000000000     0.775050000000    -0.193003   
C47      C      0.216733333333     0.548000000000     0.275050000000    -0.193003   
C47      C      0.216733333333     0.548000000000     0.775050000000    -0.193003   
C47      C      0.550066666667     0.048000000000     0.275050000000    -0.193003   
C47      C      0.550066666667     0.048000000000     0.775050000000    -0.193003   
C47      C      0.550066666667     0.548000000000     0.275050000000    -0.193003   
C47      C      0.550066666667     0.548000000000     0.775050000000    -0.193003   
C47      C      0.883400000000     0.048000000000     0.275050000000    -0.193003   
C47      C      0.883400000000     0.048000000000     0.775050000000    -0.193003   
C47      C      0.883400000000     0.548000000000     0.275050000000    -0.193003   
C47      C      0.883400000000     0.548000000000     0.775050000000    -0.193003   
C48      C      0.221366666667     0.077050000000     0.239350000000     0.550788   
C48      C      0.221366666667     0.077050000000     0.739350000000     0.550788   
C48      C      0.221366666667     0.577050000000     0.239350000000     0.550788   
C48      C      0.221366666667     0.577050000000     0.739350000000     0.550788   
C48      C      0.554700000000     0.077050000000     0.239350000000     0.550788   
C48      C      0.554700000000     0.077050000000     0.739350000000     0.550788   
C48      C      0.554700000000     0.577050000000     0.239350000000     0.550788   
C48      C      0.554700000000     0.577050000000     0.739350000000     0.550788   
C48      C      0.888033333333     0.077050000000     0.239350000000     0.550788   
C48      C      0.888033333333     0.077050000000     0.739350000000     0.550788   
C48      C      0.888033333333     0.577050000000     0.239350000000     0.550788   
C48      C      0.888033333333     0.577050000000     0.739350000000     0.550788   
C49      C      0.068700000000     0.196150000000     0.031600000000     0.074845   
C49      C      0.068700000000     0.196150000000     0.531600000000     0.074845   
C49      C      0.068700000000     0.696150000000     0.031600000000     0.074845   
C49      C      0.068700000000     0.696150000000     0.531600000000     0.074845   
C49      C      0.402033333333     0.196150000000     0.031600000000     0.074845   
C49      C      0.402033333333     0.196150000000     0.531600000000     0.074845   
C49      C      0.402033333333     0.696150000000     0.031600000000     0.074845   
C49      C      0.402033333333     0.696150000000     0.531600000000     0.074845   
C49      C      0.735366666667     0.196150000000     0.031600000000     0.074845   
C49      C      0.735366666667     0.196150000000     0.531600000000     0.074845   
C49      C      0.735366666667     0.696150000000     0.031600000000     0.074845   
C49      C      0.735366666667     0.696150000000     0.531600000000     0.074845   
C50      C      0.250533333333     0.161250000000     0.045550000000    -0.140297   
C50      C      0.250533333333     0.161250000000     0.545550000000    -0.140297   
C50      C      0.250533333333     0.661250000000     0.045550000000    -0.140297   
C50      C      0.250533333333     0.661250000000     0.545550000000    -0.140297   
C50      C      0.583866666667     0.161250000000     0.045550000000    -0.140297   
C50      C      0.583866666667     0.161250000000     0.545550000000    -0.140297   
C50      C      0.583866666667     0.661250000000     0.045550000000    -0.140297   
C50      C      0.583866666667     0.661250000000     0.545550000000    -0.140297   
C50      C      0.917200000000     0.161250000000     0.045550000000    -0.140297   
C50      C      0.917200000000     0.161250000000     0.545550000000    -0.140297   
C50      C      0.917200000000     0.661250000000     0.045550000000    -0.140297   
C50      C      0.917200000000     0.661250000000     0.545550000000    -0.140297   
C51      C      0.258666666667     0.018850000000     0.038750000000    -0.036786   
C51      C      0.258666666667     0.018850000000     0.538750000000    -0.036786   
C51      C      0.258666666667     0.518850000000     0.038750000000    -0.036786   
C51      C      0.258666666667     0.518850000000     0.538750000000    -0.036786   
C51      C      0.592000000000     0.018850000000     0.038750000000    -0.036786   
C51      C      0.592000000000     0.018850000000     0.538750000000    -0.036786   
C51      C      0.592000000000     0.518850000000     0.038750000000    -0.036786   
C51      C      0.592000000000     0.518850000000     0.538750000000    -0.036786   
C51      C      0.925333333333     0.018850000000     0.038750000000    -0.036786   
C51      C      0.925333333333     0.018850000000     0.538750000000    -0.036786   
C51      C      0.925333333333     0.518850000000     0.038750000000    -0.036786   
C51      C      0.925333333333     0.518850000000     0.538750000000    -0.036786   
C52      C      0.092000000000     0.481150000000     0.461250000000    -0.110678   
C52      C      0.092000000000     0.481150000000     0.961250000000    -0.110678   
C52      C      0.092000000000     0.981150000000     0.461250000000    -0.110678   
C52      C      0.092000000000     0.981150000000     0.961250000000    -0.110678   
C52      C      0.425333333333     0.481150000000     0.461250000000    -0.110678   
C52      C      0.425333333333     0.481150000000     0.961250000000    -0.110678   
C52      C      0.425333333333     0.981150000000     0.461250000000    -0.110678   
C52      C      0.425333333333     0.981150000000     0.961250000000    -0.110678   
C52      C      0.758666666667     0.481150000000     0.461250000000    -0.110678   
C52      C      0.758666666667     0.481150000000     0.961250000000    -0.110678   
C52      C      0.758666666667     0.981150000000     0.461250000000    -0.110678   
C52      C      0.758666666667     0.981150000000     0.961250000000    -0.110678   
C53      C      0.103733333333     0.394350000000     0.303650000000     0.085066   
C53      C      0.103733333333     0.394350000000     0.803650000000     0.085066   
C53      C      0.103733333333     0.894350000000     0.303650000000     0.085066   
C53      C      0.103733333333     0.894350000000     0.803650000000     0.085066   
C53      C      0.437066666667     0.394350000000     0.303650000000     0.085066   
C53      C      0.437066666667     0.394350000000     0.803650000000     0.085066   
C53      C      0.437066666667     0.894350000000     0.303650000000     0.085066   
C53      C      0.437066666667     0.894350000000     0.803650000000     0.085066   
C53      C      0.770400000000     0.394350000000     0.303650000000     0.085066   
C53      C      0.770400000000     0.394350000000     0.803650000000     0.085066   
C53      C      0.770400000000     0.894350000000     0.303650000000     0.085066   
C53      C      0.770400000000     0.894350000000     0.803650000000     0.085066   
C54      C      0.097966666667     0.468400000000     0.303850000000     0.176694   
C54      C      0.097966666667     0.468400000000     0.803850000000     0.176694   
C54      C      0.097966666667     0.968400000000     0.303850000000     0.176694   
C54      C      0.097966666667     0.968400000000     0.803850000000     0.176694   
C54      C      0.431300000000     0.468400000000     0.303850000000     0.176694   
C54      C      0.431300000000     0.468400000000     0.803850000000     0.176694   
C54      C      0.431300000000     0.968400000000     0.303850000000     0.176694   
C54      C      0.431300000000     0.968400000000     0.803850000000     0.176694   
C54      C      0.764633333333     0.468400000000     0.303850000000     0.176694   
C54      C      0.764633333333     0.468400000000     0.803850000000     0.176694   
C54      C      0.764633333333     0.968400000000     0.303850000000     0.176694   
C54      C      0.764633333333     0.968400000000     0.803850000000     0.176694   
C55      C      0.125366666667     0.456800000000     0.328500000000    -0.191842   
C55      C      0.125366666667     0.456800000000     0.828500000000    -0.191842   
C55      C      0.125366666667     0.956800000000     0.328500000000    -0.191842   
C55      C      0.125366666667     0.956800000000     0.828500000000    -0.191842   
C55      C      0.458700000000     0.456800000000     0.328500000000    -0.191842   
C55      C      0.458700000000     0.456800000000     0.828500000000    -0.191842   
C55      C      0.458700000000     0.956800000000     0.328500000000    -0.191842   
C55      C      0.458700000000     0.956800000000     0.828500000000    -0.191842   
C55      C      0.792033333333     0.456800000000     0.328500000000    -0.191842   
C55      C      0.792033333333     0.456800000000     0.828500000000    -0.191842   
C55      C      0.792033333333     0.956800000000     0.328500000000    -0.191842   
C55      C      0.792033333333     0.956800000000     0.828500000000    -0.191842   
C56      C      0.042033333333     0.078500000000     0.293200000000    -0.095719   
C56      C      0.042033333333     0.078500000000     0.793200000000    -0.095719   
C56      C      0.042033333333     0.578500000000     0.293200000000    -0.095719   
C56      C      0.042033333333     0.578500000000     0.793200000000    -0.095719   
C56      C      0.375366666667     0.078500000000     0.293200000000    -0.095719   
C56      C      0.375366666667     0.078500000000     0.793200000000    -0.095719   
C56      C      0.375366666667     0.578500000000     0.293200000000    -0.095719   
C56      C      0.375366666667     0.578500000000     0.793200000000    -0.095719   
C56      C      0.708700000000     0.078500000000     0.293200000000    -0.095719   
C56      C      0.708700000000     0.078500000000     0.793200000000    -0.095719   
C56      C      0.708700000000     0.578500000000     0.293200000000    -0.095719   
C56      C      0.708700000000     0.578500000000     0.793200000000    -0.095719   
C57      C      0.014633333333     0.053850000000     0.281600000000    -0.058892   
C57      C      0.014633333333     0.053850000000     0.781600000000    -0.058892   
C57      C      0.014633333333     0.553850000000     0.281600000000    -0.058892   
C57      C      0.014633333333     0.553850000000     0.781600000000    -0.058892   
C57      C      0.347966666667     0.053850000000     0.281600000000    -0.058892   
C57      C      0.347966666667     0.053850000000     0.781600000000    -0.058892   
C57      C      0.347966666667     0.553850000000     0.281600000000    -0.058892   
C57      C      0.347966666667     0.553850000000     0.781600000000    -0.058892   
C57      C      0.681300000000     0.053850000000     0.281600000000    -0.058892   
C57      C      0.681300000000     0.053850000000     0.781600000000    -0.058892   
C57      C      0.681300000000     0.553850000000     0.281600000000    -0.058892   
C57      C      0.681300000000     0.553850000000     0.781600000000    -0.058892   
C58      C      0.020400000000     0.053650000000     0.355650000000    -0.191845   
C58      C      0.020400000000     0.053650000000     0.855650000000    -0.191845   
C58      C      0.020400000000     0.553650000000     0.355650000000    -0.191845   
C58      C      0.020400000000     0.553650000000     0.855650000000    -0.191845   
C58      C      0.353733333333     0.053650000000     0.355650000000    -0.191845   
C58      C      0.353733333333     0.053650000000     0.855650000000    -0.191845   
C58      C      0.353733333333     0.553650000000     0.355650000000    -0.191845   
C58      C      0.353733333333     0.553650000000     0.855650000000    -0.191845   
C58      C      0.687066666667     0.053650000000     0.355650000000    -0.191845   
C58      C      0.687066666667     0.053650000000     0.855650000000    -0.191845   
C58      C      0.687066666667     0.553650000000     0.355650000000    -0.191845   
C58      C      0.687066666667     0.553650000000     0.855650000000    -0.191845   
C59      C      0.304700000000     0.010650000000     0.327050000000     0.176697   
C59      C      0.304700000000     0.010650000000     0.827050000000     0.176697   
C59      C      0.304700000000     0.510650000000     0.327050000000     0.176697   
C59      C      0.304700000000     0.510650000000     0.827050000000     0.176697   
C59      C      0.638033333333     0.010650000000     0.327050000000     0.176697   
C59      C      0.638033333333     0.010650000000     0.827050000000     0.176697   
C59      C      0.638033333333     0.510650000000     0.327050000000     0.176697   
C59      C      0.638033333333     0.510650000000     0.827050000000     0.176697   
C59      C      0.971366666667     0.010650000000     0.327050000000     0.176697   
C59      C      0.971366666667     0.010650000000     0.827050000000     0.176697   
C59      C      0.971366666667     0.510650000000     0.327050000000     0.176697   
C59      C      0.971366666667     0.510650000000     0.827050000000     0.176697   
C60      C      0.300066666667     0.474950000000     0.298000000000    -0.021528   
C60      C      0.300066666667     0.474950000000     0.798000000000    -0.021528   
C60      C      0.300066666667     0.974950000000     0.298000000000    -0.021528   
C60      C      0.300066666667     0.974950000000     0.798000000000    -0.021528   
C60      C      0.633400000000     0.474950000000     0.298000000000    -0.021528   
C60      C      0.633400000000     0.474950000000     0.798000000000    -0.021528   
C60      C      0.633400000000     0.974950000000     0.298000000000    -0.021528   
C60      C      0.633400000000     0.974950000000     0.798000000000    -0.021528   
C60      C      0.966733333333     0.474950000000     0.298000000000    -0.021528   
C60      C      0.966733333333     0.474950000000     0.798000000000    -0.021528   
C60      C      0.966733333333     0.974950000000     0.298000000000    -0.021528   
C60      C      0.966733333333     0.974950000000     0.798000000000    -0.021528   
C61      C      0.272000000000     0.446500000000     0.303850000000     0.074845   
C61      C      0.272000000000     0.446500000000     0.803850000000     0.074845   
C61      C      0.272000000000     0.946500000000     0.303850000000     0.074845   
C61      C      0.272000000000     0.946500000000     0.803850000000     0.074845   
C61      C      0.605333333333     0.446500000000     0.303850000000     0.074845   
C61      C      0.605333333333     0.446500000000     0.803850000000     0.074845   
C61      C      0.605333333333     0.946500000000     0.303850000000     0.074845   
C61      C      0.605333333333     0.946500000000     0.803850000000     0.074845   
C61      C      0.938666666667     0.446500000000     0.303850000000     0.074845   
C61      C      0.938666666667     0.446500000000     0.803850000000     0.074845   
C61      C      0.938666666667     0.946500000000     0.303850000000     0.074845   
C61      C      0.938666666667     0.946500000000     0.803850000000     0.074845   
C62      C      0.249466666667     0.454450000000     0.338750000000     0.550788   
C62      C      0.249466666667     0.454450000000     0.838750000000     0.550788   
C62      C      0.249466666667     0.954450000000     0.338750000000     0.550788   
C62      C      0.249466666667     0.954450000000     0.838750000000     0.550788   
C62      C      0.582800000000     0.454450000000     0.338750000000     0.550788   
C62      C      0.582800000000     0.454450000000     0.838750000000     0.550788   
C62      C      0.582800000000     0.954450000000     0.338750000000     0.550788   
C62      C      0.582800000000     0.954450000000     0.838750000000     0.550788   
C62      C      0.916133333333     0.454450000000     0.338750000000     0.550788   
C62      C      0.916133333333     0.454450000000     0.838750000000     0.550788   
C62      C      0.916133333333     0.954450000000     0.338750000000     0.550788   
C62      C      0.916133333333     0.954450000000     0.838750000000     0.550788   
C63      C      0.254400000000     0.491000000000     0.367000000000    -0.193003   
C63      C      0.254400000000     0.491000000000     0.867000000000    -0.193003   
C63      C      0.254400000000     0.991000000000     0.367000000000    -0.193003   
C63      C      0.254400000000     0.991000000000     0.867000000000    -0.193003   
C63      C      0.587733333333     0.491000000000     0.367000000000    -0.193003   
C63      C      0.587733333333     0.491000000000     0.867000000000    -0.193003   
C63      C      0.587733333333     0.991000000000     0.367000000000    -0.193003   
C63      C      0.587733333333     0.991000000000     0.867000000000    -0.193003   
C63      C      0.921066666667     0.491000000000     0.367000000000    -0.193003   
C63      C      0.921066666667     0.491000000000     0.867000000000    -0.193003   
C63      C      0.921066666667     0.991000000000     0.367000000000    -0.193003   
C63      C      0.921066666667     0.991000000000     0.867000000000    -0.193003   
C64      C      0.282600000000     0.019200000000     0.361850000000    -0.058894   
C64      C      0.282600000000     0.019200000000     0.861850000000    -0.058894   
C64      C      0.282600000000     0.519200000000     0.361850000000    -0.058894   
C64      C      0.282600000000     0.519200000000     0.861850000000    -0.058894   
C64      C      0.615933333333     0.019200000000     0.361850000000    -0.058894   
C64      C      0.615933333333     0.019200000000     0.861850000000    -0.058894   
C64      C      0.615933333333     0.519200000000     0.361850000000    -0.058894   
C64      C      0.615933333333     0.519200000000     0.861850000000    -0.058894   
C64      C      0.949266666667     0.019200000000     0.361850000000    -0.058894   
C64      C      0.949266666667     0.019200000000     0.861850000000    -0.058894   
C64      C      0.949266666667     0.519200000000     0.361850000000    -0.058894   
C64      C      0.949266666667     0.519200000000     0.861850000000    -0.058894   
C65      C      0.219366666667     0.424100000000     0.346300000000    -0.140297   
C65      C      0.219366666667     0.424100000000     0.846300000000    -0.140297   
C65      C      0.219366666667     0.924100000000     0.346300000000    -0.140297   
C65      C      0.219366666667     0.924100000000     0.846300000000    -0.140297   
C65      C      0.552700000000     0.424100000000     0.346300000000    -0.140297   
C65      C      0.552700000000     0.424100000000     0.846300000000    -0.140297   
C65      C      0.552700000000     0.924100000000     0.346300000000    -0.140297   
C65      C      0.552700000000     0.924100000000     0.846300000000    -0.140297   
C65      C      0.886033333333     0.424100000000     0.346300000000    -0.140297   
C65      C      0.886033333333     0.424100000000     0.846300000000    -0.140297   
C65      C      0.886033333333     0.924100000000     0.346300000000    -0.140297   
C65      C      0.886033333333     0.924100000000     0.846300000000    -0.140297   
C66      C      0.075000000000     0.071000000000     0.481800000000     0.074845   
C66      C      0.075000000000     0.071000000000     0.981800000000     0.074845   
C66      C      0.075000000000     0.571000000000     0.481800000000     0.074845   
C66      C      0.075000000000     0.571000000000     0.981800000000     0.074845   
C66      C      0.408333333333     0.071000000000     0.481800000000     0.074845   
C66      C      0.408333333333     0.071000000000     0.981800000000     0.074845   
C66      C      0.408333333333     0.571000000000     0.481800000000     0.074845   
C66      C      0.408333333333     0.571000000000     0.981800000000     0.074845   
C66      C      0.741666666667     0.071000000000     0.481800000000     0.074845   
C66      C      0.741666666667     0.071000000000     0.981800000000     0.074845   
C66      C      0.741666666667     0.571000000000     0.481800000000     0.074845   
C66      C      0.741666666667     0.571000000000     0.981800000000     0.074845   
C67      C      0.074666666667     0.038750000000     0.018850000000     0.550788   
C67      C      0.074666666667     0.038750000000     0.518850000000     0.550788   
C67      C      0.074666666667     0.538750000000     0.018850000000     0.550788   
C67      C      0.074666666667     0.538750000000     0.518850000000     0.550788   
C67      C      0.408000000000     0.038750000000     0.018850000000     0.550788   
C67      C      0.408000000000     0.038750000000     0.518850000000     0.550788   
C67      C      0.408000000000     0.538750000000     0.018850000000     0.550788   
C67      C      0.408000000000     0.538750000000     0.518850000000     0.550788   
C67      C      0.741333333333     0.038750000000     0.018850000000     0.550788   
C67      C      0.741333333333     0.038750000000     0.518850000000     0.550788   
C67      C      0.741333333333     0.538750000000     0.018850000000     0.550788   
C67      C      0.741333333333     0.538750000000     0.518850000000     0.550788   
C68      C      0.124633333333     0.206800000000     0.421500000000    -0.193006   
C68      C      0.124633333333     0.206800000000     0.921500000000    -0.193006   
C68      C      0.124633333333     0.706800000000     0.421500000000    -0.193006   
C68      C      0.124633333333     0.706800000000     0.921500000000    -0.193006   
C68      C      0.457966666667     0.206800000000     0.421500000000    -0.193006   
C68      C      0.457966666667     0.206800000000     0.921500000000    -0.193006   
C68      C      0.457966666667     0.706800000000     0.421500000000    -0.193006   
C68      C      0.457966666667     0.706800000000     0.921500000000    -0.193006   
C68      C      0.791300000000     0.206800000000     0.421500000000    -0.193006   
C68      C      0.791300000000     0.206800000000     0.921500000000    -0.193006   
C68      C      0.791300000000     0.706800000000     0.421500000000    -0.193006   
C68      C      0.791300000000     0.706800000000     0.921500000000    -0.193006   
C69      C      0.152033333333     0.218400000000     0.446150000000    -0.0954     
C69      C      0.152033333333     0.218400000000     0.946150000000    -0.0954     
C69      C      0.152033333333     0.718400000000     0.446150000000    -0.0954     
C69      C      0.152033333333     0.718400000000     0.946150000000    -0.0954     
C69      C      0.485366666667     0.218400000000     0.446150000000    -0.0954     
C69      C      0.485366666667     0.218400000000     0.946150000000    -0.0954     
C69      C      0.485366666667     0.718400000000     0.446150000000    -0.0954     
C69      C      0.485366666667     0.718400000000     0.946150000000    -0.0954     
C69      C      0.818700000000     0.218400000000     0.446150000000    -0.0954     
C69      C      0.818700000000     0.218400000000     0.946150000000    -0.0954     
C69      C      0.818700000000     0.718400000000     0.446150000000    -0.0954     
C69      C      0.818700000000     0.718400000000     0.946150000000    -0.0954     
C70      C      0.146266666667     0.144350000000     0.446350000000    -0.021528   
C70      C      0.146266666667     0.144350000000     0.946350000000    -0.021528   
C70      C      0.146266666667     0.644350000000     0.446350000000    -0.021528   
C70      C      0.146266666667     0.644350000000     0.946350000000    -0.021528   
C70      C      0.479600000000     0.144350000000     0.446350000000    -0.021528   
C70      C      0.479600000000     0.144350000000     0.946350000000    -0.021528   
C70      C      0.479600000000     0.644350000000     0.446350000000    -0.021528   
C70      C      0.479600000000     0.644350000000     0.946350000000    -0.021528   
C70      C      0.812933333333     0.144350000000     0.446350000000    -0.021528   
C70      C      0.812933333333     0.144350000000     0.946350000000    -0.021528   
C70      C      0.812933333333     0.644350000000     0.446350000000    -0.021528   
C70      C      0.812933333333     0.644350000000     0.946350000000    -0.021528   
C71      C      0.195300000000     0.172950000000     0.489350000000    -0.095719   
C71      C      0.195300000000     0.172950000000     0.989350000000    -0.095719   
C71      C      0.195300000000     0.672950000000     0.489350000000    -0.095719   
C71      C      0.195300000000     0.672950000000     0.989350000000    -0.095719   
C71      C      0.528633333333     0.172950000000     0.489350000000    -0.095719   
C71      C      0.528633333333     0.172950000000     0.989350000000    -0.095719   
C71      C      0.528633333333     0.672950000000     0.489350000000    -0.095719   
C71      C      0.528633333333     0.672950000000     0.989350000000    -0.095719   
C71      C      0.861966666667     0.172950000000     0.489350000000    -0.095719   
C71      C      0.861966666667     0.172950000000     0.989350000000    -0.095719   
C71      C      0.861966666667     0.672950000000     0.489350000000    -0.095719   
C71      C      0.861966666667     0.672950000000     0.989350000000    -0.095719   
C72      C      0.199933333333     0.202000000000     0.025050000000    -0.095719   
C72      C      0.199933333333     0.202000000000     0.525050000000    -0.095719   
C72      C      0.199933333333     0.702000000000     0.025050000000    -0.095719   
C72      C      0.199933333333     0.702000000000     0.525050000000    -0.095719   
C72      C      0.533266666667     0.202000000000     0.025050000000    -0.095719   
C72      C      0.533266666667     0.202000000000     0.525050000000    -0.095719   
C72      C      0.533266666667     0.702000000000     0.025050000000    -0.095719   
C72      C      0.533266666667     0.702000000000     0.525050000000    -0.095719   
C72      C      0.866600000000     0.202000000000     0.025050000000    -0.095719   
C72      C      0.866600000000     0.202000000000     0.525050000000    -0.095719   
C72      C      0.866600000000     0.702000000000     0.025050000000    -0.095719   
C72      C      0.866600000000     0.702000000000     0.525050000000    -0.095719   
C73      C      0.228000000000     0.196150000000     0.053500000000     0.176696   
C73      C      0.228000000000     0.196150000000     0.553500000000     0.176696   
C73      C      0.228000000000     0.696150000000     0.053500000000     0.176696   
C73      C      0.228000000000     0.696150000000     0.553500000000     0.176696   
C73      C      0.561333333333     0.196150000000     0.053500000000     0.176696   
C73      C      0.561333333333     0.196150000000     0.553500000000     0.176696   
C73      C      0.561333333333     0.696150000000     0.053500000000     0.176696   
C73      C      0.561333333333     0.696150000000     0.553500000000     0.176696   
C73      C      0.894666666667     0.196150000000     0.053500000000     0.176696   
C73      C      0.894666666667     0.196150000000     0.553500000000     0.176696   
C73      C      0.894666666667     0.696150000000     0.053500000000     0.176696   
C73      C      0.894666666667     0.696150000000     0.553500000000     0.176696   
C74      C      0.250000000000     0.004950000000     0.495050000000     0.085066   
C74      C      0.250000000000     0.004950000000     0.995050000000     0.085066   
C74      C      0.250000000000     0.504950000000     0.495050000000     0.085066   
C74      C      0.250000000000     0.504950000000     0.995050000000     0.085066   
C74      C      0.583333333333     0.004950000000     0.495050000000     0.085066   
C74      C      0.583333333333     0.004950000000     0.995050000000     0.085066   
C74      C      0.583333333333     0.504950000000     0.495050000000     0.085066   
C74      C      0.583333333333     0.504950000000     0.995050000000     0.085066   
C74      C      0.916666666667     0.004950000000     0.495050000000     0.085066   
C74      C      0.916666666667     0.004950000000     0.995050000000     0.085066   
C74      C      0.916666666667     0.504950000000     0.495050000000     0.085066   
C74      C      0.916666666667     0.504950000000     0.995050000000     0.085066   
C75      C      0.050066666667     0.452000000000     0.224950000000    -0.110698   
C75      C      0.050066666667     0.452000000000     0.724950000000    -0.110698   
C75      C      0.050066666667     0.952000000000     0.224950000000    -0.110698   
C75      C      0.050066666667     0.952000000000     0.724950000000    -0.110698   
C75      C      0.383400000000     0.452000000000     0.224950000000    -0.110698   
C75      C      0.383400000000     0.452000000000     0.724950000000    -0.110698   
C75      C      0.383400000000     0.952000000000     0.224950000000    -0.110698   
C75      C      0.383400000000     0.952000000000     0.724950000000    -0.110698   
C75      C      0.716733333333     0.452000000000     0.224950000000    -0.110698   
C75      C      0.716733333333     0.452000000000     0.724950000000    -0.110698   
C75      C      0.716733333333     0.952000000000     0.224950000000    -0.110698   
C75      C      0.716733333333     0.952000000000     0.724950000000    -0.110698   
C76      C      0.054700000000     0.422950000000     0.260650000000    -0.036765   
C76      C      0.054700000000     0.422950000000     0.760650000000    -0.036765   
C76      C      0.054700000000     0.922950000000     0.260650000000    -0.036765   
C76      C      0.054700000000     0.922950000000     0.760650000000    -0.036765   
C76      C      0.388033333333     0.422950000000     0.260650000000    -0.036765   
C76      C      0.388033333333     0.422950000000     0.760650000000    -0.036765   
C76      C      0.388033333333     0.922950000000     0.260650000000    -0.036765   
C76      C      0.388033333333     0.922950000000     0.760650000000    -0.036765   
C76      C      0.721366666667     0.422950000000     0.260650000000    -0.036765   
C76      C      0.721366666667     0.422950000000     0.760650000000    -0.036765   
C76      C      0.721366666667     0.922950000000     0.260650000000    -0.036765   
C76      C      0.721366666667     0.922950000000     0.760650000000    -0.036765   
C77      C      0.332800000000     0.411250000000     0.204450000000    -0.140297   
C77      C      0.332800000000     0.411250000000     0.704450000000    -0.140297   
C77      C      0.332800000000     0.911250000000     0.204450000000    -0.140297   
C77      C      0.332800000000     0.911250000000     0.704450000000    -0.140297   
C77      C      0.666133333333     0.411250000000     0.204450000000    -0.140297   
C77      C      0.666133333333     0.411250000000     0.704450000000    -0.140297   
C77      C      0.666133333333     0.911250000000     0.204450000000    -0.140297   
C77      C      0.666133333333     0.911250000000     0.704450000000    -0.140297   
C77      C      0.999466666667     0.411250000000     0.204450000000    -0.140297   
C77      C      0.999466666667     0.411250000000     0.704450000000    -0.140297   
C77      C      0.999466666667     0.911250000000     0.204450000000    -0.140297   
C77      C      0.999466666667     0.911250000000     0.704450000000    -0.140297   
C78      C      0.091666666667     0.018200000000     0.429000000000     0.074845   
C78      C      0.091666666667     0.018200000000     0.929000000000     0.074845   
C78      C      0.091666666667     0.518200000000     0.429000000000     0.074845   
C78      C      0.091666666667     0.518200000000     0.929000000000     0.074845   
C78      C      0.425000000000     0.018200000000     0.429000000000     0.074845   
C78      C      0.425000000000     0.018200000000     0.929000000000     0.074845   
C78      C      0.425000000000     0.518200000000     0.429000000000     0.074845   
C78      C      0.425000000000     0.518200000000     0.929000000000     0.074845   
C78      C      0.758333333333     0.018200000000     0.429000000000     0.074845   
C78      C      0.758333333333     0.018200000000     0.929000000000     0.074845   
C78      C      0.758333333333     0.518200000000     0.429000000000     0.074845   
C78      C      0.758333333333     0.518200000000     0.929000000000     0.074845   
C79      C      0.280633333333     0.153700000000     0.075900000000     0.550788   
C79      C      0.280633333333     0.153700000000     0.575900000000     0.550788   
C79      C      0.280633333333     0.653700000000     0.075900000000     0.550788   
C79      C      0.280633333333     0.653700000000     0.575900000000     0.550788   
C79      C      0.613966666667     0.153700000000     0.075900000000     0.550788   
C79      C      0.613966666667     0.153700000000     0.575900000000     0.550788   
C79      C      0.613966666667     0.653700000000     0.075900000000     0.550788   
C79      C      0.613966666667     0.653700000000     0.575900000000     0.550788   
C79      C      0.947300000000     0.153700000000     0.075900000000     0.550788   
C79      C      0.947300000000     0.153700000000     0.575900000000     0.550788   
C79      C      0.947300000000     0.653700000000     0.075900000000     0.550788   
C79      C      0.947300000000     0.653700000000     0.575900000000     0.550788   
C80      C      0.217400000000     0.138150000000     0.480800000000    -0.193004   
C80      C      0.217400000000     0.138150000000     0.980800000000    -0.193004   
C80      C      0.217400000000     0.638150000000     0.480800000000    -0.193004   
C80      C      0.217400000000     0.638150000000     0.980800000000    -0.193004   
C80      C      0.550733333333     0.138150000000     0.480800000000    -0.193004   
C80      C      0.550733333333     0.138150000000     0.980800000000    -0.193004   
C80      C      0.550733333333     0.638150000000     0.480800000000    -0.193004   
C80      C      0.550733333333     0.638150000000     0.980800000000    -0.193004   
C80      C      0.884066666667     0.138150000000     0.480800000000    -0.193004   
C80      C      0.884066666667     0.138150000000     0.980800000000    -0.193004   
C80      C      0.884066666667     0.638150000000     0.480800000000    -0.193004   
C80      C      0.884066666667     0.638150000000     0.980800000000    -0.193004   
C81      C      0.166666666667     0.245050000000     0.245050000000    -0.0954     
C81      C      0.166666666667     0.245050000000     0.745050000000    -0.0954     
C81      C      0.166666666667     0.745050000000     0.245050000000    -0.0954     
C81      C      0.166666666667     0.745050000000     0.745050000000    -0.0954     
C81      C      0.500000000000     0.245050000000     0.245050000000    -0.0954     
C81      C      0.500000000000     0.245050000000     0.745050000000    -0.0954     
C81      C      0.500000000000     0.745050000000     0.245050000000    -0.0954     
C81      C      0.500000000000     0.745050000000     0.745050000000    -0.0954     
C81      C      0.833333333333     0.245050000000     0.245050000000    -0.0954     
C81      C      0.833333333333     0.245050000000     0.745050000000    -0.0954     
C81      C      0.833333333333     0.745050000000     0.245050000000    -0.0954     
C81      C      0.833333333333     0.745050000000     0.745050000000    -0.0954     
C82      C      0.175333333333     0.288750000000     0.231150000000    -0.191843   
C82      C      0.175333333333     0.288750000000     0.731150000000    -0.191843   
C82      C      0.175333333333     0.788750000000     0.231150000000    -0.191843   
C82      C      0.175333333333     0.788750000000     0.731150000000    -0.191843   
C82      C      0.508666666667     0.288750000000     0.231150000000    -0.191843   
C82      C      0.508666666667     0.288750000000     0.731150000000    -0.191843   
C82      C      0.508666666667     0.788750000000     0.231150000000    -0.191843   
C82      C      0.508666666667     0.788750000000     0.731150000000    -0.191843   
C82      C      0.842000000000     0.288750000000     0.231150000000    -0.191843   
C82      C      0.842000000000     0.288750000000     0.731150000000    -0.191843   
C82      C      0.842000000000     0.788750000000     0.231150000000    -0.191843   
C82      C      0.842000000000     0.788750000000     0.731150000000    -0.191843   
C83      C      0.175000000000     0.321000000000     0.268200000000    -0.058892   
C83      C      0.175000000000     0.321000000000     0.768200000000    -0.058892   
C83      C      0.175000000000     0.821000000000     0.268200000000    -0.058892   
C83      C      0.175000000000     0.821000000000     0.768200000000    -0.058892   
C83      C      0.508333333333     0.321000000000     0.268200000000    -0.058892   
C83      C      0.508333333333     0.321000000000     0.768200000000    -0.058892   
C83      C      0.508333333333     0.821000000000     0.268200000000    -0.058892   
C83      C      0.508333333333     0.821000000000     0.768200000000    -0.058892   
C83      C      0.841666666667     0.321000000000     0.268200000000    -0.058892   
C83      C      0.841666666667     0.321000000000     0.768200000000    -0.058892   
C83      C      0.841666666667     0.821000000000     0.268200000000    -0.058892   
C83      C      0.841666666667     0.821000000000     0.768200000000    -0.058892   
C84      C      0.030633333333     0.174100000000     0.403700000000     0.792044   
C84      C      0.030633333333     0.174100000000     0.903700000000     0.792044   
C84      C      0.030633333333     0.674100000000     0.403700000000     0.792044   
C84      C      0.030633333333     0.674100000000     0.903700000000     0.792044   
C84      C      0.363966666667     0.174100000000     0.403700000000     0.792044   
C84      C      0.363966666667     0.174100000000     0.903700000000     0.792044   
C84      C      0.363966666667     0.674100000000     0.403700000000     0.792044   
C84      C      0.363966666667     0.674100000000     0.903700000000     0.792044   
C84      C      0.697300000000     0.174100000000     0.403700000000     0.792044   
C84      C      0.697300000000     0.174100000000     0.903700000000     0.792044   
C84      C      0.697300000000     0.674100000000     0.403700000000     0.792044   
C84      C      0.697300000000     0.674100000000     0.903700000000     0.792044   
C85      C      0.300733333333     0.269200000000     0.388150000000     0.792044   
C85      C      0.300733333333     0.269200000000     0.888150000000     0.792044   
C85      C      0.300733333333     0.769200000000     0.388150000000     0.792044   
C85      C      0.300733333333     0.769200000000     0.888150000000     0.792044   
C85      C      0.634066666667     0.269200000000     0.388150000000     0.792044   
C85      C      0.634066666667     0.269200000000     0.888150000000     0.792044   
C85      C      0.634066666667     0.769200000000     0.388150000000     0.792044   
C85      C      0.634066666667     0.769200000000     0.888150000000     0.792044   
C85      C      0.967400000000     0.269200000000     0.388150000000     0.792044   
C85      C      0.967400000000     0.269200000000     0.888150000000     0.792044   
C85      C      0.967400000000     0.769200000000     0.388150000000     0.792044   
C85      C      0.967400000000     0.769200000000     0.888150000000     0.792044   
C86      C      0.328933333333     0.241000000000     0.383000000000     0.792044   
C86      C      0.328933333333     0.241000000000     0.883000000000     0.792044   
C86      C      0.328933333333     0.741000000000     0.383000000000     0.792044   
C86      C      0.328933333333     0.741000000000     0.883000000000     0.792044   
C86      C      0.662266666667     0.241000000000     0.383000000000     0.792044   
C86      C      0.662266666667     0.241000000000     0.883000000000     0.792044   
C86      C      0.662266666667     0.741000000000     0.383000000000     0.792044   
C86      C      0.662266666667     0.741000000000     0.883000000000     0.792044   
C86      C      0.995600000000     0.241000000000     0.383000000000     0.792044   
C86      C      0.995600000000     0.241000000000     0.883000000000     0.792044   
C86      C      0.995600000000     0.741000000000     0.383000000000     0.792044   
C86      C      0.995600000000     0.741000000000     0.883000000000     0.792044   
C87      C      0.000533333333     0.204450000000     0.411250000000     0.792044   
C87      C      0.000533333333     0.204450000000     0.911250000000     0.792044   
C87      C      0.000533333333     0.704450000000     0.411250000000     0.792044   
C87      C      0.000533333333     0.704450000000     0.911250000000     0.792044   
C87      C      0.333866666667     0.204450000000     0.411250000000     0.792044   
C87      C      0.333866666667     0.204450000000     0.911250000000     0.792044   
C87      C      0.333866666667     0.704450000000     0.411250000000     0.792044   
C87      C      0.333866666667     0.704450000000     0.911250000000     0.792044   
C87      C      0.667200000000     0.204450000000     0.411250000000     0.792044   
C87      C      0.667200000000     0.204450000000     0.911250000000     0.792044   
C87      C      0.667200000000     0.704450000000     0.411250000000     0.792044   
C87      C      0.667200000000     0.704450000000     0.911250000000     0.792044   
C88      C      0.022000000000     0.446150000000     0.196500000000     0.116601   
C88      C      0.022000000000     0.446150000000     0.696500000000     0.116601   
C88      C      0.022000000000     0.946150000000     0.196500000000     0.116601   
C88      C      0.022000000000     0.946150000000     0.696500000000     0.116601   
C88      C      0.355333333333     0.446150000000     0.196500000000     0.116601   
C88      C      0.355333333333     0.446150000000     0.696500000000     0.116601   
C88      C      0.355333333333     0.946150000000     0.196500000000     0.116601   
C88      C      0.355333333333     0.946150000000     0.696500000000     0.116601   
C88      C      0.688666666667     0.446150000000     0.196500000000     0.116601   
C88      C      0.688666666667     0.446150000000     0.696500000000     0.116601   
C88      C      0.688666666667     0.946150000000     0.196500000000     0.116601   
C88      C      0.688666666667     0.946150000000     0.696500000000     0.116601   
C89      C      0.311333333333     0.196500000000     0.446150000000     0.130394   
C89      C      0.311333333333     0.196500000000     0.946150000000     0.130394   
C89      C      0.311333333333     0.696500000000     0.446150000000     0.130394   
C89      C      0.311333333333     0.696500000000     0.946150000000     0.130394   
C89      C      0.644666666667     0.196500000000     0.446150000000     0.130394   
C89      C      0.644666666667     0.196500000000     0.946150000000     0.130394   
C89      C      0.644666666667     0.696500000000     0.446150000000     0.130394   
C89      C      0.644666666667     0.696500000000     0.946150000000     0.130394   
C89      C      0.978000000000     0.196500000000     0.446150000000     0.130394   
C89      C      0.978000000000     0.196500000000     0.946150000000     0.130394   
C89      C      0.978000000000     0.696500000000     0.446150000000     0.130394   
C89      C      0.978000000000     0.696500000000     0.946150000000     0.130394   
C90      C      0.278633333333     0.260650000000     0.422950000000     0.116601   
C90      C      0.278633333333     0.260650000000     0.922950000000     0.116601   
C90      C      0.278633333333     0.760650000000     0.422950000000     0.116601   
C90      C      0.278633333333     0.760650000000     0.922950000000     0.116601   
C90      C      0.611966666667     0.260650000000     0.422950000000     0.116601   
C90      C      0.611966666667     0.260650000000     0.922950000000     0.116601   
C90      C      0.611966666667     0.760650000000     0.422950000000     0.116601   
C90      C      0.611966666667     0.760650000000     0.922950000000     0.116601   
C90      C      0.945300000000     0.260650000000     0.422950000000     0.116601   
C90      C      0.945300000000     0.260650000000     0.922950000000     0.116601   
C90      C      0.945300000000     0.760650000000     0.422950000000     0.116601   
C90      C      0.945300000000     0.760650000000     0.922950000000     0.116601   
C91      C      0.229600000000     0.303650000000     0.394350000000     0.121758   
C91      C      0.229600000000     0.303650000000     0.894350000000     0.121758   
C91      C      0.229600000000     0.803650000000     0.394350000000     0.121758   
C91      C      0.229600000000     0.803650000000     0.894350000000     0.121758   
C91      C      0.562933333333     0.303650000000     0.394350000000     0.121758   
C91      C      0.562933333333     0.303650000000     0.894350000000     0.121758   
C91      C      0.562933333333     0.803650000000     0.394350000000     0.121758   
C91      C      0.562933333333     0.803650000000     0.894350000000     0.121758   
C91      C      0.896266666667     0.303650000000     0.394350000000     0.121758   
C91      C      0.896266666667     0.303650000000     0.894350000000     0.121758   
C91      C      0.896266666667     0.803650000000     0.394350000000     0.121758   
C91      C      0.896266666667     0.803650000000     0.894350000000     0.121758   
C92      C      0.235366666667     0.303850000000     0.468400000000     0.116754   
C92      C      0.235366666667     0.303850000000     0.968400000000     0.116754   
C92      C      0.235366666667     0.803850000000     0.468400000000     0.116754   
C92      C      0.235366666667     0.803850000000     0.968400000000     0.116754   
C92      C      0.568700000000     0.303850000000     0.468400000000     0.116754   
C92      C      0.568700000000     0.303850000000     0.968400000000     0.116754   
C92      C      0.568700000000     0.803850000000     0.468400000000     0.116754   
C92      C      0.568700000000     0.803850000000     0.968400000000     0.116754   
C92      C      0.902033333333     0.303850000000     0.468400000000     0.116754   
C92      C      0.902033333333     0.303850000000     0.968400000000     0.116754   
C92      C      0.902033333333     0.803850000000     0.468400000000     0.116754   
C92      C      0.902033333333     0.803850000000     0.968400000000     0.116754   
C93      C      0.207966666667     0.328500000000     0.456800000000     0.111554   
C93      C      0.207966666667     0.328500000000     0.956800000000     0.111554   
C93      C      0.207966666667     0.828500000000     0.456800000000     0.111554   
C93      C      0.207966666667     0.828500000000     0.956800000000     0.111554   
C93      C      0.541300000000     0.328500000000     0.456800000000     0.111554   
C93      C      0.541300000000     0.328500000000     0.956800000000     0.111554   
C93      C      0.541300000000     0.828500000000     0.456800000000     0.111554   
C93      C      0.541300000000     0.828500000000     0.956800000000     0.111554   
C93      C      0.874633333333     0.328500000000     0.456800000000     0.111554   
C93      C      0.874633333333     0.328500000000     0.956800000000     0.111554   
C93      C      0.874633333333     0.828500000000     0.456800000000     0.111554   
C93      C      0.874633333333     0.828500000000     0.956800000000     0.111554   
C94      C      0.158000000000     0.231150000000     0.288750000000     0.133788   
C94      C      0.158000000000     0.231150000000     0.788750000000     0.133788   
C94      C      0.158000000000     0.731150000000     0.288750000000     0.133788   
C94      C      0.158000000000     0.731150000000     0.788750000000     0.133788   
C94      C      0.491333333333     0.231150000000     0.288750000000     0.133788   
C94      C      0.491333333333     0.231150000000     0.788750000000     0.133788   
C94      C      0.491333333333     0.731150000000     0.288750000000     0.133788   
C94      C      0.491333333333     0.731150000000     0.788750000000     0.133788   
C94      C      0.824666666667     0.231150000000     0.288750000000     0.133788   
C94      C      0.824666666667     0.231150000000     0.788750000000     0.133788   
C94      C      0.824666666667     0.731150000000     0.288750000000     0.133788   
C94      C      0.824666666667     0.731150000000     0.788750000000     0.133788   
C95      C      0.158333333333     0.268200000000     0.321000000000     0.128066   
C95      C      0.158333333333     0.268200000000     0.821000000000     0.128066   
C95      C      0.158333333333     0.768200000000     0.321000000000     0.128066   
C95      C      0.158333333333     0.768200000000     0.821000000000     0.128066   
C95      C      0.491666666667     0.268200000000     0.321000000000     0.128066   
C95      C      0.491666666667     0.268200000000     0.821000000000     0.128066   
C95      C      0.491666666667     0.768200000000     0.321000000000     0.128066   
C95      C      0.491666666667     0.768200000000     0.821000000000     0.128066   
C95      C      0.825000000000     0.268200000000     0.321000000000     0.128066   
C95      C      0.825000000000     0.268200000000     0.821000000000     0.128066   
C95      C      0.825000000000     0.768200000000     0.321000000000     0.128066   
C95      C      0.825000000000     0.768200000000     0.821000000000     0.128066   
C96      C      0.302700000000     0.403700000000     0.174100000000     0.137569   
C96      C      0.302700000000     0.403700000000     0.674100000000     0.137569   
C96      C      0.302700000000     0.903700000000     0.174100000000     0.137569   
C96      C      0.302700000000     0.903700000000     0.674100000000     0.137569   
C96      C      0.636033333333     0.403700000000     0.174100000000     0.137569   
C96      C      0.636033333333     0.403700000000     0.674100000000     0.137569   
C96      C      0.636033333333     0.903700000000     0.174100000000     0.137569   
C96      C      0.636033333333     0.903700000000     0.674100000000     0.137569   
C96      C      0.969366666667     0.403700000000     0.174100000000     0.137569   
C96      C      0.969366666667     0.403700000000     0.674100000000     0.137569   
C96      C      0.969366666667     0.903700000000     0.174100000000     0.137569   
C96      C      0.969366666667     0.903700000000     0.674100000000     0.137569   
C97      C      0.032600000000     0.388150000000     0.269200000000     0.088546   
C97      C      0.032600000000     0.388150000000     0.769200000000     0.088546   
C97      C      0.032600000000     0.888150000000     0.269200000000     0.088546   
C97      C      0.032600000000     0.888150000000     0.769200000000     0.088546   
C97      C      0.365933333333     0.388150000000     0.269200000000     0.088546   
C97      C      0.365933333333     0.388150000000     0.769200000000     0.088546   
C97      C      0.365933333333     0.888150000000     0.269200000000     0.088546   
C97      C      0.365933333333     0.888150000000     0.769200000000     0.088546   
C97      C      0.699266666667     0.388150000000     0.269200000000     0.088546   
C97      C      0.699266666667     0.388150000000     0.769200000000     0.088546   
C97      C      0.699266666667     0.888150000000     0.269200000000     0.088546   
C97      C      0.699266666667     0.888150000000     0.769200000000     0.088546   
C98      C      0.004400000000     0.383000000000     0.241000000000     0.130393   
C98      C      0.004400000000     0.383000000000     0.741000000000     0.130393   
C98      C      0.004400000000     0.883000000000     0.241000000000     0.130393   
C98      C      0.004400000000     0.883000000000     0.741000000000     0.130393   
C98      C      0.337733333333     0.383000000000     0.241000000000     0.130393   
C98      C      0.337733333333     0.383000000000     0.741000000000     0.130393   
C98      C      0.337733333333     0.883000000000     0.241000000000     0.130393   
C98      C      0.337733333333     0.883000000000     0.741000000000     0.130393   
C98      C      0.671066666667     0.383000000000     0.241000000000     0.130393   
C98      C      0.671066666667     0.383000000000     0.741000000000     0.130393   
C98      C      0.671066666667     0.883000000000     0.241000000000     0.130393   
C98      C      0.671066666667     0.883000000000     0.741000000000     0.130393   
C99      C      0.283266666667     0.224950000000     0.452000000000     0.116601   
C99      C      0.283266666667     0.224950000000     0.952000000000     0.116601   
C99      C      0.283266666667     0.724950000000     0.452000000000     0.116601   
C99      C      0.283266666667     0.724950000000     0.952000000000     0.116601   
C99      C      0.616600000000     0.224950000000     0.452000000000     0.116601   
C99      C      0.616600000000     0.224950000000     0.952000000000     0.116601   
C99      C      0.616600000000     0.724950000000     0.452000000000     0.116601   
C99      C      0.616600000000     0.724950000000     0.952000000000     0.116601   
C99      C      0.949933333333     0.224950000000     0.452000000000     0.116601   
C99      C      0.949933333333     0.224950000000     0.952000000000     0.116601   
C99      C      0.949933333333     0.724950000000     0.452000000000     0.116601   
C99      C      0.949933333333     0.724950000000     0.952000000000     0.116601   
C100     C      0.083333333333     0.495050000000     0.004950000000     0.128068   
C100     C      0.083333333333     0.495050000000     0.504950000000     0.128068   
C100     C      0.083333333333     0.995050000000     0.004950000000     0.128068   
C100     C      0.083333333333     0.995050000000     0.504950000000     0.128068   
C100     C      0.416666666667     0.495050000000     0.004950000000     0.128068   
C100     C      0.416666666667     0.495050000000     0.504950000000     0.128068   
C100     C      0.416666666667     0.995050000000     0.004950000000     0.128068   
C100     C      0.416666666667     0.995050000000     0.504950000000     0.128068   
C100     C      0.750000000000     0.495050000000     0.004950000000     0.128068   
C100     C      0.750000000000     0.495050000000     0.504950000000     0.128068   
C100     C      0.750000000000     0.995050000000     0.004950000000     0.128068   
C100     C      0.750000000000     0.995050000000     0.504950000000     0.128068   
Cd1      Cd     0.083333333333     0.115265000000     0.384735000000     0.133787   
Cd1      Cd     0.083333333333     0.115265000000     0.884735000000     0.133787   
Cd1      Cd     0.083333333333     0.615265000000     0.384735000000     0.133787   
Cd1      Cd     0.083333333333     0.615265000000     0.884735000000     0.133787   
Cd1      Cd     0.416666666667     0.115265000000     0.384735000000     0.133787   
Cd1      Cd     0.416666666667     0.115265000000     0.884735000000     0.133787   
Cd1      Cd     0.416666666667     0.615265000000     0.384735000000     0.133787   
Cd1      Cd     0.416666666667     0.615265000000     0.884735000000     0.133787   
Cd1      Cd     0.750000000000     0.115265000000     0.384735000000     0.133787   
Cd1      Cd     0.750000000000     0.115265000000     0.884735000000     0.133787   
Cd1      Cd     0.750000000000     0.615265000000     0.384735000000     0.133787   
Cd1      Cd     0.750000000000     0.615265000000     0.884735000000     0.133787   
Cd2      Cd     0.250000000000     0.384735000000     0.115265000000     0.111554   
Cd2      Cd     0.250000000000     0.384735000000     0.615265000000     0.111554   
Cd2      Cd     0.250000000000     0.884735000000     0.115265000000     0.111554   
Cd2      Cd     0.250000000000     0.884735000000     0.615265000000     0.111554   
Cd2      Cd     0.583333333333     0.384735000000     0.115265000000     0.111554   
Cd2      Cd     0.583333333333     0.384735000000     0.615265000000     0.111554   
Cd2      Cd     0.583333333333     0.884735000000     0.115265000000     0.111554   
Cd2      Cd     0.583333333333     0.884735000000     0.615265000000     0.111554   
Cd2      Cd     0.916666666667     0.384735000000     0.115265000000     0.111554   
Cd2      Cd     0.916666666667     0.384735000000     0.615265000000     0.111554   
Cd2      Cd     0.916666666667     0.884735000000     0.115265000000     0.111554   
Cd2      Cd     0.916666666667     0.884735000000     0.615265000000     0.111554   
Cd3      Cd     0.166666666667     0.365265000000     0.365265000000     0.088546   
Cd3      Cd     0.166666666667     0.365265000000     0.865265000000     0.088546   
Cd3      Cd     0.166666666667     0.865265000000     0.365265000000     0.088546   
Cd3      Cd     0.166666666667     0.865265000000     0.865265000000     0.088546   
Cd3      Cd     0.500000000000     0.365265000000     0.365265000000     0.088546   
Cd3      Cd     0.500000000000     0.365265000000     0.865265000000     0.088546   
Cd3      Cd     0.500000000000     0.865265000000     0.365265000000     0.088546   
Cd3      Cd     0.500000000000     0.865265000000     0.865265000000     0.088546   
Cd3      Cd     0.833333333333     0.365265000000     0.365265000000     0.088546   
Cd3      Cd     0.833333333333     0.365265000000     0.865265000000     0.088546   
Cd3      Cd     0.833333333333     0.865265000000     0.365265000000     0.088546   
Cd3      Cd     0.833333333333     0.865265000000     0.865265000000     0.088546   
Cd4      Cd     0.000000000000     0.134735000000     0.134735000000     0.137569   
Cd4      Cd     0.000000000000     0.134735000000     0.634735000000     0.137569   
Cd4      Cd     0.000000000000     0.634735000000     0.134735000000     0.137569   
Cd4      Cd     0.000000000000     0.634735000000     0.634735000000     0.137569   
Cd4      Cd     0.333333333333     0.134735000000     0.134735000000     0.137569   
Cd4      Cd     0.333333333333     0.134735000000     0.634735000000     0.137569   
Cd4      Cd     0.333333333333     0.634735000000     0.134735000000     0.137569   
Cd4      Cd     0.333333333333     0.634735000000     0.634735000000     0.137569   
Cd4      Cd     0.666666666667     0.134735000000     0.134735000000     0.137569   
Cd4      Cd     0.666666666667     0.134735000000     0.634735000000     0.137569   
Cd4      Cd     0.666666666667     0.634735000000     0.134735000000     0.137569   
Cd4      Cd     0.666666666667     0.634735000000     0.634735000000     0.137569   
H1       H      0.155433333333     0.139650000000     0.253100000000     0.096724   
H1       H      0.155433333333     0.139650000000     0.753100000000     0.096724   
H1       H      0.155433333333     0.639650000000     0.253100000000     0.096724   
H1       H      0.155433333333     0.639650000000     0.753100000000     0.096724   
H1       H      0.488766666667     0.139650000000     0.253100000000     0.096724   
H1       H      0.488766666667     0.139650000000     0.753100000000     0.096724   
H1       H      0.488766666667     0.639650000000     0.253100000000     0.096724   
H1       H      0.488766666667     0.639650000000     0.753100000000     0.096724   
H1       H      0.822100000000     0.139650000000     0.253100000000     0.096724   
H1       H      0.822100000000     0.139650000000     0.753100000000     0.096724   
H1       H      0.822100000000     0.639650000000     0.253100000000     0.096724   
H1       H      0.822100000000     0.639650000000     0.753100000000     0.096724   
H2       H      0.297033333333     0.293100000000     0.368600000000     0.096724   
H2       H      0.297033333333     0.293100000000     0.868600000000     0.096724   
H2       H      0.297033333333     0.793100000000     0.368600000000     0.096724   
H2       H      0.297033333333     0.793100000000     0.868600000000     0.096724   
H2       H      0.630366666667     0.293100000000     0.368600000000     0.096724   
H2       H      0.630366666667     0.293100000000     0.868600000000     0.096724   
H2       H      0.630366666667     0.793100000000     0.368600000000     0.096724   
H2       H      0.630366666667     0.793100000000     0.868600000000     0.096724   
H2       H      0.963700000000     0.293100000000     0.368600000000     0.096724   
H2       H      0.963700000000     0.293100000000     0.868600000000     0.096724   
H2       H      0.963700000000     0.793100000000     0.368600000000     0.096724   
H2       H      0.963700000000     0.793100000000     0.868600000000     0.096724   
H3       H      0.011233333333     0.246900000000     0.360350000000     0.130393   
H3       H      0.011233333333     0.246900000000     0.860350000000     0.130393   
H3       H      0.011233333333     0.746900000000     0.360350000000     0.130393   
H3       H      0.011233333333     0.746900000000     0.860350000000     0.130393   
H3       H      0.344566666667     0.246900000000     0.360350000000     0.130393   
H3       H      0.344566666667     0.246900000000     0.860350000000     0.130393   
H3       H      0.344566666667     0.746900000000     0.360350000000     0.130393   
H3       H      0.344566666667     0.746900000000     0.860350000000     0.130393   
H3       H      0.677900000000     0.246900000000     0.360350000000     0.130393   
H3       H      0.677900000000     0.246900000000     0.860350000000     0.130393   
H3       H      0.677900000000     0.746900000000     0.360350000000     0.130393   
H3       H      0.677900000000     0.746900000000     0.860350000000     0.130393   
H4       H      0.314800000000     0.172450000000     0.465600000000     0.116601   
H4       H      0.314800000000     0.172450000000     0.965600000000     0.116601   
H4       H      0.314800000000     0.672450000000     0.465600000000     0.116601   
H4       H      0.314800000000     0.672450000000     0.965600000000     0.116601   
H4       H      0.648133333333     0.172450000000     0.465600000000     0.116601   
H4       H      0.648133333333     0.172450000000     0.965600000000     0.116601   
H4       H      0.648133333333     0.672450000000     0.465600000000     0.116601   
H4       H      0.648133333333     0.672450000000     0.965600000000     0.116601   
H4       H      0.981466666667     0.172450000000     0.465600000000     0.116601   
H4       H      0.981466666667     0.172450000000     0.965600000000     0.116601   
H4       H      0.981466666667     0.672450000000     0.465600000000     0.116601   
H4       H      0.981466666667     0.672450000000     0.965600000000     0.116601   
H5       H      0.267933333333     0.219800000000     0.475200000000     0.121758   
H5       H      0.267933333333     0.219800000000     0.975200000000     0.121758   
H5       H      0.267933333333     0.719800000000     0.475200000000     0.121758   
H5       H      0.267933333333     0.719800000000     0.975200000000     0.121758   
H5       H      0.601266666667     0.219800000000     0.475200000000     0.121758   
H5       H      0.601266666667     0.219800000000     0.975200000000     0.121758   
H5       H      0.601266666667     0.719800000000     0.475200000000     0.121758   
H5       H      0.601266666667     0.719800000000     0.975200000000     0.121758   
H5       H      0.934600000000     0.219800000000     0.475200000000     0.121758   
H5       H      0.934600000000     0.219800000000     0.975200000000     0.121758   
H5       H      0.934600000000     0.719800000000     0.475200000000     0.121758   
H5       H      0.934600000000     0.719800000000     0.975200000000     0.121758   
H6       H      0.233533333333     0.297900000000     0.364100000000     0.116754   
H6       H      0.233533333333     0.297900000000     0.864100000000     0.116754   
H6       H      0.233533333333     0.797900000000     0.364100000000     0.116754   
H6       H      0.233533333333     0.797900000000     0.864100000000     0.116754   
H6       H      0.566866666667     0.297900000000     0.364100000000     0.116754   
H6       H      0.566866666667     0.297900000000     0.864100000000     0.116754   
H6       H      0.566866666667     0.797900000000     0.364100000000     0.116754   
H6       H      0.566866666667     0.797900000000     0.864100000000     0.116754   
H6       H      0.900200000000     0.297900000000     0.364100000000     0.116754   
H6       H      0.900200000000     0.297900000000     0.864100000000     0.116754   
H6       H      0.900200000000     0.797900000000     0.364100000000     0.116754   
H6       H      0.900200000000     0.797900000000     0.864100000000     0.116754   
H7       H      0.243366666667     0.298450000000     0.497300000000     0.111554   
H7       H      0.243366666667     0.298450000000     0.997300000000     0.111554   
H7       H      0.243366666667     0.798450000000     0.497300000000     0.111554   
H7       H      0.243366666667     0.798450000000     0.997300000000     0.111554   
H7       H      0.576700000000     0.298450000000     0.497300000000     0.111554   
H7       H      0.576700000000     0.298450000000     0.997300000000     0.111554   
H7       H      0.576700000000     0.798450000000     0.497300000000     0.111554   
H7       H      0.576700000000     0.798450000000     0.997300000000     0.111554   
H7       H      0.910033333333     0.298450000000     0.497300000000     0.111554   
H7       H      0.910033333333     0.298450000000     0.997300000000     0.111554   
H7       H      0.910033333333     0.798450000000     0.497300000000     0.111554   
H7       H      0.910033333333     0.798450000000     0.997300000000     0.111554   
H8       H      0.193766666667     0.343500000000     0.476750000000     0.133787   
H8       H      0.193766666667     0.343500000000     0.976750000000     0.133787   
H8       H      0.193766666667     0.843500000000     0.476750000000     0.133787   
H8       H      0.193766666667     0.843500000000     0.976750000000     0.133787   
H8       H      0.527100000000     0.343500000000     0.476750000000     0.133787   
H8       H      0.527100000000     0.343500000000     0.976750000000     0.133787   
H8       H      0.527100000000     0.843500000000     0.476750000000     0.133787   
H8       H      0.527100000000     0.843500000000     0.976750000000     0.133787   
H8       H      0.860433333333     0.343500000000     0.476750000000     0.133787   
H8       H      0.860433333333     0.343500000000     0.976750000000     0.133787   
H8       H      0.860433333333     0.843500000000     0.476750000000     0.133787   
H8       H      0.860433333333     0.843500000000     0.976750000000     0.133787   
H9       H      0.153000000000     0.201600000000     0.296350000000     0.128068   
H9       H      0.153000000000     0.201600000000     0.796350000000     0.128068   
H9       H      0.153000000000     0.701600000000     0.296350000000     0.128068   
H9       H      0.153000000000     0.701600000000     0.796350000000     0.128068   
H9       H      0.486333333333     0.201600000000     0.296350000000     0.128068   
H9       H      0.486333333333     0.201600000000     0.796350000000     0.128068   
H9       H      0.486333333333     0.701600000000     0.296350000000     0.128068   
H9       H      0.486333333333     0.701600000000     0.796350000000     0.128068   
H9       H      0.819666666667     0.201600000000     0.296350000000     0.128068   
H9       H      0.819666666667     0.201600000000     0.796350000000     0.128068   
H9       H      0.819666666667     0.701600000000     0.296350000000     0.128068   
H9       H      0.819666666667     0.701600000000     0.796350000000     0.128068   
H10      H      0.152200000000     0.262250000000     0.350650000000     0.116754   
H10      H      0.152200000000     0.262250000000     0.850650000000     0.116754   
H10      H      0.152200000000     0.762250000000     0.350650000000     0.116754   
H10      H      0.152200000000     0.762250000000     0.850650000000     0.116754   
H10      H      0.485533333333     0.262250000000     0.350650000000     0.116754   
H10      H      0.485533333333     0.262250000000     0.850650000000     0.116754   
H10      H      0.485533333333     0.762250000000     0.350650000000     0.116754   
H10      H      0.485533333333     0.762250000000     0.850650000000     0.116754   
H10      H      0.818866666667     0.262250000000     0.350650000000     0.116754   
H10      H      0.818866666667     0.262250000000     0.850650000000     0.116754   
H10      H      0.818866666667     0.762250000000     0.350650000000     0.116754   
H10      H      0.818866666667     0.762250000000     0.850650000000     0.116754   
H11      H      0.036300000000     0.368600000000     0.293100000000     0.137569   
H11      H      0.036300000000     0.368600000000     0.793100000000     0.137569   
H11      H      0.036300000000     0.868600000000     0.293100000000     0.137569   
H11      H      0.036300000000     0.868600000000     0.793100000000     0.137569   
H11      H      0.369633333333     0.368600000000     0.293100000000     0.137569   
H11      H      0.369633333333     0.368600000000     0.793100000000     0.137569   
H11      H      0.369633333333     0.868600000000     0.293100000000     0.137569   
H11      H      0.369633333333     0.868600000000     0.793100000000     0.137569   
H11      H      0.702966666667     0.368600000000     0.293100000000     0.137569   
H11      H      0.702966666667     0.368600000000     0.793100000000     0.137569   
H11      H      0.702966666667     0.868600000000     0.293100000000     0.137569   
H11      H      0.702966666667     0.868600000000     0.793100000000     0.137569   
H12      H      0.322100000000     0.360350000000     0.246900000000     0.130393   
H12      H      0.322100000000     0.360350000000     0.746900000000     0.130393   
H12      H      0.322100000000     0.860350000000     0.246900000000     0.130393   
H12      H      0.322100000000     0.860350000000     0.746900000000     0.130393   
H12      H      0.655433333333     0.360350000000     0.246900000000     0.130393   
H12      H      0.655433333333     0.360350000000     0.746900000000     0.130393   
H12      H      0.655433333333     0.860350000000     0.246900000000     0.130393   
H12      H      0.655433333333     0.860350000000     0.746900000000     0.130393   
H12      H      0.988766666667     0.360350000000     0.246900000000     0.130393   
H12      H      0.988766666667     0.360350000000     0.746900000000     0.130393   
H12      H      0.988766666667     0.860350000000     0.246900000000     0.130393   
H12      H      0.988766666667     0.860350000000     0.746900000000     0.130393   
H13      H      0.306233333333     0.023250000000     0.156500000000     0.116601   
H13      H      0.306233333333     0.023250000000     0.656500000000     0.116601   
H13      H      0.306233333333     0.523250000000     0.156500000000     0.116601   
H13      H      0.306233333333     0.523250000000     0.656500000000     0.116601   
H13      H      0.639566666667     0.023250000000     0.156500000000     0.116601   
H13      H      0.639566666667     0.023250000000     0.656500000000     0.116601   
H13      H      0.639566666667     0.523250000000     0.156500000000     0.116601   
H13      H      0.639566666667     0.523250000000     0.656500000000     0.116601   
H13      H      0.972900000000     0.023250000000     0.156500000000     0.116601   
H13      H      0.972900000000     0.023250000000     0.656500000000     0.116601   
H13      H      0.972900000000     0.523250000000     0.156500000000     0.116601   
H13      H      0.972900000000     0.523250000000     0.656500000000     0.116601   
H14      H      0.256633333333     0.002700000000     0.201550000000     0.121758   
H14      H      0.256633333333     0.002700000000     0.701550000000     0.121758   
H14      H      0.256633333333     0.502700000000     0.201550000000     0.121758   
H14      H      0.256633333333     0.502700000000     0.701550000000     0.121758   
H14      H      0.589966666667     0.002700000000     0.201550000000     0.121758   
H14      H      0.589966666667     0.002700000000     0.701550000000     0.121758   
H14      H      0.589966666667     0.502700000000     0.201550000000     0.121758   
H14      H      0.589966666667     0.502700000000     0.701550000000     0.121758   
H14      H      0.923300000000     0.002700000000     0.201550000000     0.121758   
H14      H      0.923300000000     0.002700000000     0.701550000000     0.121758   
H14      H      0.923300000000     0.502700000000     0.201550000000     0.121758   
H14      H      0.923300000000     0.502700000000     0.701550000000     0.121758   
H15      H      0.266466666667     0.135900000000     0.202100000000     0.116754   
H15      H      0.266466666667     0.135900000000     0.702100000000     0.116754   
H15      H      0.266466666667     0.635900000000     0.202100000000     0.116754   
H15      H      0.266466666667     0.635900000000     0.702100000000     0.116754   
H15      H      0.599800000000     0.135900000000     0.202100000000     0.116754   
H15      H      0.599800000000     0.135900000000     0.702100000000     0.116754   
H15      H      0.599800000000     0.635900000000     0.202100000000     0.116754   
H15      H      0.599800000000     0.635900000000     0.702100000000     0.116754   
H15      H      0.933133333333     0.135900000000     0.202100000000     0.116754   
H15      H      0.933133333333     0.135900000000     0.702100000000     0.116754   
H15      H      0.933133333333     0.635900000000     0.202100000000     0.116754   
H15      H      0.933133333333     0.635900000000     0.702100000000     0.116754   
H16      H      0.181133333333     0.350650000000     0.262250000000     0.111554   
H16      H      0.181133333333     0.350650000000     0.762250000000     0.111554   
H16      H      0.181133333333     0.850650000000     0.262250000000     0.111554   
H16      H      0.181133333333     0.850650000000     0.762250000000     0.111554   
H16      H      0.514466666667     0.350650000000     0.262250000000     0.111554   
H16      H      0.514466666667     0.350650000000     0.762250000000     0.111554   
H16      H      0.514466666667     0.850650000000     0.262250000000     0.111554   
H16      H      0.514466666667     0.850650000000     0.762250000000     0.111554   
H16      H      0.847800000000     0.350650000000     0.262250000000     0.111554   
H16      H      0.847800000000     0.350650000000     0.762250000000     0.111554   
H16      H      0.847800000000     0.850650000000     0.262250000000     0.111554   
H16      H      0.847800000000     0.850650000000     0.762250000000     0.111554   
H17      H      0.180333333333     0.296350000000     0.201600000000     0.133787   
H17      H      0.180333333333     0.296350000000     0.701600000000     0.133787   
H17      H      0.180333333333     0.796350000000     0.201600000000     0.133787   
H17      H      0.180333333333     0.796350000000     0.701600000000     0.133787   
H17      H      0.513666666667     0.296350000000     0.201600000000     0.133787   
H17      H      0.513666666667     0.296350000000     0.701600000000     0.133787   
H17      H      0.513666666667     0.796350000000     0.201600000000     0.133787   
H17      H      0.513666666667     0.796350000000     0.701600000000     0.133787   
H17      H      0.847000000000     0.296350000000     0.201600000000     0.133787   
H17      H      0.847000000000     0.296350000000     0.701600000000     0.133787   
H17      H      0.847000000000     0.796350000000     0.201600000000     0.133787   
H17      H      0.847000000000     0.796350000000     0.701600000000     0.133787   
H18      H      0.083333333333     0.472950000000     0.027050000000     0.128068   
H18      H      0.083333333333     0.472950000000     0.527050000000     0.128068   
H18      H      0.083333333333     0.972950000000     0.027050000000     0.128068   
H18      H      0.083333333333     0.972950000000     0.527050000000     0.128068   
H18      H      0.416666666667     0.472950000000     0.027050000000     0.128068   
H18      H      0.416666666667     0.472950000000     0.527050000000     0.128068   
H18      H      0.416666666667     0.972950000000     0.027050000000     0.128068   
H18      H      0.416666666667     0.972950000000     0.527050000000     0.128068   
H18      H      0.750000000000     0.472950000000     0.027050000000     0.128068   
H18      H      0.750000000000     0.472950000000     0.527050000000     0.128068   
H18      H      0.750000000000     0.972950000000     0.027050000000     0.128068   
H18      H      0.750000000000     0.972950000000     0.527050000000     0.128068   
H19      H      0.166666666667     0.222950000000     0.222950000000     0.088546   
H19      H      0.166666666667     0.222950000000     0.722950000000     0.088546   
H19      H      0.166666666667     0.722950000000     0.222950000000     0.088546   
H19      H      0.166666666667     0.722950000000     0.722950000000     0.088546   
H19      H      0.500000000000     0.222950000000     0.222950000000     0.088546   
H19      H      0.500000000000     0.222950000000     0.722950000000     0.088546   
H19      H      0.500000000000     0.722950000000     0.222950000000     0.088546   
H19      H      0.500000000000     0.722950000000     0.722950000000     0.088546   
H19      H      0.833333333333     0.222950000000     0.222950000000     0.088546   
H19      H      0.833333333333     0.222950000000     0.722950000000     0.088546   
H19      H      0.833333333333     0.722950000000     0.222950000000     0.088546   
H19      H      0.833333333333     0.722950000000     0.722950000000     0.088546   
H20      H      0.213700000000     0.118600000000     0.456900000000     0.121758   
H20      H      0.213700000000     0.118600000000     0.956900000000     0.121758   
H20      H      0.213700000000     0.618600000000     0.456900000000     0.121758   
H20      H      0.213700000000     0.618600000000     0.956900000000     0.121758   
H20      H      0.547033333333     0.118600000000     0.456900000000     0.121758   
H20      H      0.547033333333     0.118600000000     0.956900000000     0.121758   
H20      H      0.547033333333     0.618600000000     0.456900000000     0.121758   
H20      H      0.547033333333     0.618600000000     0.956900000000     0.121758   
H20      H      0.880366666667     0.118600000000     0.456900000000     0.121758   
H20      H      0.880366666667     0.118600000000     0.956900000000     0.121758   
H20      H      0.880366666667     0.618600000000     0.456900000000     0.121758   
H20      H      0.880366666667     0.618600000000     0.956900000000     0.121758   
H21      H      0.261233333333     0.110350000000     0.003100000000     0.137569   
H21      H      0.261233333333     0.110350000000     0.503100000000     0.137569   
H21      H      0.261233333333     0.610350000000     0.003100000000     0.137569   
H21      H      0.261233333333     0.610350000000     0.503100000000     0.137569   
H21      H      0.594566666667     0.110350000000     0.003100000000     0.137569   
H21      H      0.594566666667     0.110350000000     0.503100000000     0.137569   
H21      H      0.594566666667     0.610350000000     0.003100000000     0.137569   
H21      H      0.594566666667     0.610350000000     0.503100000000     0.137569   
H21      H      0.927900000000     0.110350000000     0.003100000000     0.137569   
H21      H      0.927900000000     0.110350000000     0.503100000000     0.137569   
H21      H      0.927900000000     0.610350000000     0.003100000000     0.137569   
H21      H      0.927900000000     0.610350000000     0.503100000000     0.137569   
H22      H      0.231466666667     0.215600000000     0.077550000000     0.130394   
H22      H      0.231466666667     0.215600000000     0.577550000000     0.130394   
H22      H      0.231466666667     0.715600000000     0.077550000000     0.130394   
H22      H      0.231466666667     0.715600000000     0.577550000000     0.130394   
H22      H      0.564800000000     0.215600000000     0.077550000000     0.130394   
H22      H      0.564800000000     0.215600000000     0.577550000000     0.130394   
H22      H      0.564800000000     0.715600000000     0.077550000000     0.130394   
H22      H      0.564800000000     0.715600000000     0.577550000000     0.130394   
H22      H      0.898133333333     0.215600000000     0.077550000000     0.130394   
H22      H      0.898133333333     0.215600000000     0.577550000000     0.130394   
H22      H      0.898133333333     0.715600000000     0.077550000000     0.130394   
H22      H      0.898133333333     0.715600000000     0.577550000000     0.130394   
H23      H      0.184600000000     0.225200000000     0.030200000000     0.133787   
H23      H      0.184600000000     0.225200000000     0.530200000000     0.133787   
H23      H      0.184600000000     0.725200000000     0.030200000000     0.133787   
H23      H      0.184600000000     0.725200000000     0.530200000000     0.133787   
H23      H      0.517933333333     0.225200000000     0.030200000000     0.133787   
H23      H      0.517933333333     0.225200000000     0.530200000000     0.133787   
H23      H      0.517933333333     0.725200000000     0.030200000000     0.133787   
H23      H      0.517933333333     0.725200000000     0.530200000000     0.133787   
H23      H      0.851266666667     0.225200000000     0.030200000000     0.133787   
H23      H      0.851266666667     0.225200000000     0.530200000000     0.133787   
H23      H      0.851266666667     0.725200000000     0.030200000000     0.133787   
H23      H      0.851266666667     0.725200000000     0.530200000000     0.133787   
H24      H      0.150200000000     0.114100000000     0.452100000000     0.128068   
H24      H      0.150200000000     0.114100000000     0.952100000000     0.128068   
H24      H      0.150200000000     0.614100000000     0.452100000000     0.128068   
H24      H      0.150200000000     0.614100000000     0.952100000000     0.128068   
H24      H      0.483533333333     0.114100000000     0.452100000000     0.128068   
H24      H      0.483533333333     0.114100000000     0.952100000000     0.128068   
H24      H      0.483533333333     0.614100000000     0.452100000000     0.128068   
H24      H      0.483533333333     0.614100000000     0.952100000000     0.128068   
H24      H      0.816866666667     0.114100000000     0.452100000000     0.128068   
H24      H      0.816866666667     0.114100000000     0.952100000000     0.128068   
H24      H      0.816866666667     0.614100000000     0.452100000000     0.128068   
H24      H      0.816866666667     0.614100000000     0.952100000000     0.128068   
H25      H      0.160033333333     0.247300000000     0.451550000000     0.137569   
H25      H      0.160033333333     0.247300000000     0.951550000000     0.137569   
H25      H      0.160033333333     0.747300000000     0.451550000000     0.137569   
H25      H      0.160033333333     0.747300000000     0.951550000000     0.137569   
H25      H      0.493366666667     0.247300000000     0.451550000000     0.137569   
H25      H      0.493366666667     0.247300000000     0.951550000000     0.137569   
H25      H      0.493366666667     0.747300000000     0.451550000000     0.137569   
H25      H      0.493366666667     0.747300000000     0.951550000000     0.137569   
H25      H      0.826700000000     0.247300000000     0.451550000000     0.137569   
H25      H      0.826700000000     0.247300000000     0.951550000000     0.137569   
H25      H      0.826700000000     0.747300000000     0.451550000000     0.137569   
H25      H      0.826700000000     0.747300000000     0.951550000000     0.137569   
H26      H      0.110433333333     0.226750000000     0.406500000000     0.088546   
H26      H      0.110433333333     0.226750000000     0.906500000000     0.088546   
H26      H      0.110433333333     0.726750000000     0.406500000000     0.088546   
H26      H      0.110433333333     0.726750000000     0.906500000000     0.088546   
H26      H      0.443766666667     0.226750000000     0.406500000000     0.088546   
H26      H      0.443766666667     0.226750000000     0.906500000000     0.088546   
H26      H      0.443766666667     0.726750000000     0.406500000000     0.088546   
H26      H      0.443766666667     0.726750000000     0.906500000000     0.088546   
H26      H      0.777100000000     0.226750000000     0.406500000000     0.088546   
H26      H      0.777100000000     0.226750000000     0.906500000000     0.088546   
H26      H      0.777100000000     0.726750000000     0.406500000000     0.088546   
H26      H      0.777100000000     0.726750000000     0.906500000000     0.088546   
H27      H      0.232066666667     0.024800000000     0.280200000000     0.130393   
H27      H      0.232066666667     0.024800000000     0.780200000000     0.130393   
H27      H      0.232066666667     0.524800000000     0.280200000000     0.130393   
H27      H      0.232066666667     0.524800000000     0.780200000000     0.130393   
H27      H      0.565400000000     0.024800000000     0.280200000000     0.130393   
H27      H      0.565400000000     0.024800000000     0.780200000000     0.130393   
H27      H      0.565400000000     0.524800000000     0.280200000000     0.130393   
H27      H      0.565400000000     0.524800000000     0.780200000000     0.130393   
H27      H      0.898733333333     0.024800000000     0.280200000000     0.130393   
H27      H      0.898733333333     0.024800000000     0.780200000000     0.130393   
H27      H      0.898733333333     0.524800000000     0.280200000000     0.130393   
H27      H      0.898733333333     0.524800000000     0.780200000000     0.130393   
H28      H      0.069666666667     0.046350000000     0.048400000000     0.116601   
H28      H      0.069666666667     0.046350000000     0.548400000000     0.116601   
H28      H      0.069666666667     0.546350000000     0.048400000000     0.116601   
H28      H      0.069666666667     0.546350000000     0.548400000000     0.116601   
H28      H      0.403000000000     0.046350000000     0.048400000000     0.116601   
H28      H      0.403000000000     0.046350000000     0.548400000000     0.116601   
H28      H      0.403000000000     0.546350000000     0.048400000000     0.116601   
H28      H      0.403000000000     0.546350000000     0.548400000000     0.116601   
H28      H      0.736333333333     0.046350000000     0.048400000000     0.116601   
H28      H      0.736333333333     0.046350000000     0.548400000000     0.116601   
H28      H      0.736333333333     0.546350000000     0.048400000000     0.116601   
H28      H      0.736333333333     0.546350000000     0.548400000000     0.116601   
H29      H      0.286300000000     0.043100000000     0.381400000000     0.121758   
H29      H      0.286300000000     0.043100000000     0.881400000000     0.121758   
H29      H      0.286300000000     0.543100000000     0.381400000000     0.121758   
H29      H      0.286300000000     0.543100000000     0.881400000000     0.121758   
H29      H      0.619633333333     0.043100000000     0.381400000000     0.121758   
H29      H      0.619633333333     0.043100000000     0.881400000000     0.121758   
H29      H      0.619633333333     0.543100000000     0.381400000000     0.121758   
H29      H      0.619633333333     0.543100000000     0.881400000000     0.121758   
H29      H      0.952966666667     0.043100000000     0.381400000000     0.121758   
H29      H      0.952966666667     0.043100000000     0.881400000000     0.121758   
H29      H      0.952966666667     0.543100000000     0.381400000000     0.121758   
H29      H      0.952966666667     0.543100000000     0.881400000000     0.121758   
H30      H      0.238766666667     0.496900000000     0.389650000000     0.111554   
H30      H      0.238766666667     0.496900000000     0.889650000000     0.111554   
H30      H      0.238766666667     0.996900000000     0.389650000000     0.111554   
H30      H      0.238766666667     0.996900000000     0.889650000000     0.111554   
H30      H      0.572100000000     0.496900000000     0.389650000000     0.111554   
H30      H      0.572100000000     0.496900000000     0.889650000000     0.111554   
H30      H      0.572100000000     0.996900000000     0.389650000000     0.111554   
H30      H      0.572100000000     0.996900000000     0.889650000000     0.111554   
H30      H      0.905433333333     0.496900000000     0.389650000000     0.111554   
H30      H      0.905433333333     0.496900000000     0.889650000000     0.111554   
H30      H      0.905433333333     0.996900000000     0.389650000000     0.111554   
H30      H      0.905433333333     0.996900000000     0.889650000000     0.111554   
H31      H      0.268533333333     0.422450000000     0.284400000000     0.116754   
H31      H      0.268533333333     0.422450000000     0.784400000000     0.116754   
H31      H      0.268533333333     0.922450000000     0.284400000000     0.116754   
H31      H      0.268533333333     0.922450000000     0.784400000000     0.116754   
H31      H      0.601866666667     0.422450000000     0.284400000000     0.116754   
H31      H      0.601866666667     0.422450000000     0.784400000000     0.116754   
H31      H      0.601866666667     0.922450000000     0.284400000000     0.116754   
H31      H      0.601866666667     0.922450000000     0.784400000000     0.116754   
H31      H      0.935200000000     0.422450000000     0.284400000000     0.116754   
H31      H      0.935200000000     0.422450000000     0.784400000000     0.116754   
H31      H      0.935200000000     0.922450000000     0.284400000000     0.116754   
H31      H      0.935200000000     0.922450000000     0.784400000000     0.116754   
H32      H      0.315400000000     0.469800000000     0.274800000000     0.133788   
H32      H      0.315400000000     0.469800000000     0.774800000000     0.133788   
H32      H      0.315400000000     0.969800000000     0.274800000000     0.133788   
H32      H      0.315400000000     0.969800000000     0.774800000000     0.133788   
H32      H      0.648733333333     0.469800000000     0.274800000000     0.133788   
H32      H      0.648733333333     0.469800000000     0.774800000000     0.133788   
H32      H      0.648733333333     0.969800000000     0.274800000000     0.133788   
H32      H      0.648733333333     0.969800000000     0.774800000000     0.133788   
H32      H      0.982066666667     0.469800000000     0.274800000000     0.133788   
H32      H      0.982066666667     0.469800000000     0.774800000000     0.133788   
H32      H      0.982066666667     0.969800000000     0.274800000000     0.133788   
H32      H      0.982066666667     0.969800000000     0.774800000000     0.133788   
H33      H      0.016466666667     0.047900000000     0.385900000000     0.128066   
H33      H      0.016466666667     0.047900000000     0.885900000000     0.128066   
H33      H      0.016466666667     0.547900000000     0.385900000000     0.128066   
H33      H      0.016466666667     0.547900000000     0.885900000000     0.128066   
H33      H      0.349800000000     0.047900000000     0.385900000000     0.128066   
H33      H      0.349800000000     0.047900000000     0.885900000000     0.128066   
H33      H      0.349800000000     0.547900000000     0.385900000000     0.128066   
H33      H      0.349800000000     0.547900000000     0.885900000000     0.128066   
H33      H      0.683133333333     0.047900000000     0.385900000000     0.128066   
H33      H      0.683133333333     0.047900000000     0.885900000000     0.128066   
H33      H      0.683133333333     0.547900000000     0.385900000000     0.128066   
H33      H      0.683133333333     0.547900000000     0.885900000000     0.128066   
H34      H      0.006633333333     0.048450000000     0.252700000000     0.121758   
H34      H      0.006633333333     0.048450000000     0.752700000000     0.121758   
H34      H      0.006633333333     0.548450000000     0.252700000000     0.121758   
H34      H      0.006633333333     0.548450000000     0.752700000000     0.121758   
H34      H      0.339966666667     0.048450000000     0.252700000000     0.121758   
H34      H      0.339966666667     0.048450000000     0.752700000000     0.121758   
H34      H      0.339966666667     0.548450000000     0.252700000000     0.121758   
H34      H      0.339966666667     0.548450000000     0.752700000000     0.121758   
H34      H      0.673300000000     0.048450000000     0.252700000000     0.121758   
H34      H      0.673300000000     0.048450000000     0.752700000000     0.121758   
H34      H      0.673300000000     0.548450000000     0.252700000000     0.121758   
H34      H      0.673300000000     0.548450000000     0.752700000000     0.121758   
H35      H      0.056233333333     0.093500000000     0.273250000000     0.116754   
H35      H      0.056233333333     0.093500000000     0.773250000000     0.116754   
H35      H      0.056233333333     0.593500000000     0.273250000000     0.116754   
H35      H      0.056233333333     0.593500000000     0.773250000000     0.116754   
H35      H      0.389566666667     0.093500000000     0.273250000000     0.116754   
H35      H      0.389566666667     0.093500000000     0.773250000000     0.116754   
H35      H      0.389566666667     0.593500000000     0.273250000000     0.116754   
H35      H      0.389566666667     0.593500000000     0.773250000000     0.116754   
H35      H      0.722900000000     0.093500000000     0.273250000000     0.116754   
H35      H      0.722900000000     0.093500000000     0.773250000000     0.116754   
H35      H      0.722900000000     0.593500000000     0.273250000000     0.116754   
H35      H      0.722900000000     0.593500000000     0.773250000000     0.116754   
H36      H      0.068866666667     0.100650000000     0.487750000000     0.111554   
H36      H      0.068866666667     0.100650000000     0.987750000000     0.111554   
H36      H      0.068866666667     0.600650000000     0.487750000000     0.111554   
H36      H      0.068866666667     0.600650000000     0.987750000000     0.111554   
H36      H      0.402200000000     0.100650000000     0.487750000000     0.111554   
H36      H      0.402200000000     0.100650000000     0.987750000000     0.111554   
H36      H      0.402200000000     0.600650000000     0.487750000000     0.111554   
H36      H      0.402200000000     0.600650000000     0.987750000000     0.111554   
H36      H      0.735533333333     0.100650000000     0.487750000000     0.111554   
H36      H      0.735533333333     0.100650000000     0.987750000000     0.111554   
H36      H      0.735533333333     0.600650000000     0.487750000000     0.111554   
H36      H      0.735533333333     0.600650000000     0.987750000000     0.111554   
H37      H      0.185200000000     0.034400000000     0.327550000000     0.133788   
H37      H      0.185200000000     0.034400000000     0.827550000000     0.133788   
H37      H      0.185200000000     0.534400000000     0.327550000000     0.133788   
H37      H      0.185200000000     0.534400000000     0.827550000000     0.133788   
H37      H      0.518533333333     0.034400000000     0.327550000000     0.133788   
H37      H      0.518533333333     0.034400000000     0.827550000000     0.133788   
H37      H      0.518533333333     0.534400000000     0.327550000000     0.133788   
H37      H      0.518533333333     0.534400000000     0.827550000000     0.133788   
H37      H      0.851866666667     0.034400000000     0.327550000000     0.133788   
H37      H      0.851866666667     0.034400000000     0.827550000000     0.133788   
H37      H      0.851866666667     0.534400000000     0.327550000000     0.133788   
H37      H      0.851866666667     0.534400000000     0.827550000000     0.133788   
H38      H      0.097000000000     0.451600000000     0.453650000000     0.128066   
H38      H      0.097000000000     0.451600000000     0.953650000000     0.128066   
H38      H      0.097000000000     0.951600000000     0.453650000000     0.128066   
H38      H      0.097000000000     0.951600000000     0.953650000000     0.128066   
H38      H      0.430333333333     0.451600000000     0.453650000000     0.128066   
H38      H      0.430333333333     0.451600000000     0.953650000000     0.128066   
H38      H      0.430333333333     0.951600000000     0.453650000000     0.128066   
H38      H      0.430333333333     0.951600000000     0.953650000000     0.128066   
H38      H      0.763666666667     0.451600000000     0.453650000000     0.128066   
H38      H      0.763666666667     0.451600000000     0.953650000000     0.128066   
H38      H      0.763666666667     0.951600000000     0.453650000000     0.128066   
H38      H      0.763666666667     0.951600000000     0.953650000000     0.128066   
H39      H      0.202966666667     0.131400000000     0.206900000000     0.111554   
H39      H      0.202966666667     0.131400000000     0.706900000000     0.111554   
H39      H      0.202966666667     0.631400000000     0.206900000000     0.111554   
H39      H      0.202966666667     0.631400000000     0.706900000000     0.111554   
H39      H      0.536300000000     0.131400000000     0.206900000000     0.111554   
H39      H      0.536300000000     0.131400000000     0.706900000000     0.111554   
H39      H      0.536300000000     0.631400000000     0.206900000000     0.111554   
H39      H      0.536300000000     0.631400000000     0.706900000000     0.111554   
H39      H      0.869633333333     0.131400000000     0.206900000000     0.111554   
H39      H      0.869633333333     0.131400000000     0.706900000000     0.111554   
H39      H      0.869633333333     0.631400000000     0.206900000000     0.111554   
H39      H      0.869633333333     0.631400000000     0.706900000000     0.111554   
H40      H      0.326700000000     0.252700000000     0.048450000000     0.088546   
H40      H      0.326700000000     0.252700000000     0.548450000000     0.088546   
H40      H      0.326700000000     0.752700000000     0.048450000000     0.088546   
H40      H      0.326700000000     0.752700000000     0.548450000000     0.088546   
H40      H      0.660033333333     0.252700000000     0.048450000000     0.088546   
H40      H      0.660033333333     0.252700000000     0.548450000000     0.088546   
H40      H      0.660033333333     0.752700000000     0.048450000000     0.088546   
H40      H      0.660033333333     0.752700000000     0.548450000000     0.088546   
H40      H      0.993366666667     0.252700000000     0.048450000000     0.088546   
H40      H      0.993366666667     0.252700000000     0.548450000000     0.088546   
H40      H      0.993366666667     0.752700000000     0.048450000000     0.088546   
H40      H      0.993366666667     0.752700000000     0.548450000000     0.088546   
H41      H      0.277100000000     0.273250000000     0.093500000000     0.116754   
H41      H      0.277100000000     0.273250000000     0.593500000000     0.116754   
H41      H      0.277100000000     0.773250000000     0.093500000000     0.116754   
H41      H      0.277100000000     0.773250000000     0.593500000000     0.116754   
H41      H      0.610433333333     0.273250000000     0.093500000000     0.116754   
H41      H      0.610433333333     0.273250000000     0.593500000000     0.116754   
H41      H      0.610433333333     0.773250000000     0.093500000000     0.116754   
H41      H      0.610433333333     0.773250000000     0.593500000000     0.116754   
H41      H      0.943766666667     0.273250000000     0.093500000000     0.116754   
H41      H      0.943766666667     0.273250000000     0.593500000000     0.116754   
H41      H      0.943766666667     0.773250000000     0.093500000000     0.116754   
H41      H      0.943766666667     0.773250000000     0.593500000000     0.116754   
H42      H      0.236333333333     0.453650000000     0.451600000000     0.116601   
H42      H      0.236333333333     0.453650000000     0.951600000000     0.116601   
H42      H      0.236333333333     0.953650000000     0.451600000000     0.116601   
H42      H      0.236333333333     0.953650000000     0.951600000000     0.116601   
H42      H      0.569666666667     0.453650000000     0.451600000000     0.116601   
H42      H      0.569666666667     0.453650000000     0.951600000000     0.116601   
H42      H      0.569666666667     0.953650000000     0.451600000000     0.116601   
H42      H      0.569666666667     0.953650000000     0.951600000000     0.116601   
H42      H      0.903000000000     0.453650000000     0.451600000000     0.116601   
H42      H      0.903000000000     0.453650000000     0.951600000000     0.116601   
H42      H      0.903000000000     0.953650000000     0.451600000000     0.116601   
H42      H      0.903000000000     0.953650000000     0.951600000000     0.116601   
H43      H      0.235533333333     0.399350000000     0.012250000000     0.088546   
H43      H      0.235533333333     0.399350000000     0.512250000000     0.088546   
H43      H      0.235533333333     0.899350000000     0.012250000000     0.088546   
H43      H      0.235533333333     0.899350000000     0.512250000000     0.088546   
H43      H      0.568866666667     0.399350000000     0.012250000000     0.088546   
H43      H      0.568866666667     0.399350000000     0.512250000000     0.088546   
H43      H      0.568866666667     0.899350000000     0.012250000000     0.088546   
H43      H      0.568866666667     0.899350000000     0.512250000000     0.088546   
H43      H      0.902200000000     0.399350000000     0.012250000000     0.088546   
H43      H      0.902200000000     0.399350000000     0.512250000000     0.088546   
H43      H      0.902200000000     0.899350000000     0.012250000000     0.088546   
H43      H      0.902200000000     0.899350000000     0.512250000000     0.088546   
H44      H      0.119633333333     0.456900000000     0.118600000000     0.137569   
H44      H      0.119633333333     0.456900000000     0.618600000000     0.137569   
H44      H      0.119633333333     0.956900000000     0.118600000000     0.137569   
H44      H      0.119633333333     0.956900000000     0.618600000000     0.137569   
H44      H      0.452966666667     0.456900000000     0.118600000000     0.137569   
H44      H      0.452966666667     0.456900000000     0.618600000000     0.137569   
H44      H      0.452966666667     0.956900000000     0.118600000000     0.137569   
H44      H      0.452966666667     0.956900000000     0.618600000000     0.137569   
H44      H      0.786300000000     0.456900000000     0.118600000000     0.137569   
H44      H      0.786300000000     0.456900000000     0.618600000000     0.137569   
H44      H      0.786300000000     0.956900000000     0.118600000000     0.137569   
H44      H      0.786300000000     0.956900000000     0.618600000000     0.137569   
H45      H      0.072100000000     0.003100000000     0.110350000000     0.128068   
H45      H      0.072100000000     0.003100000000     0.610350000000     0.128068   
H45      H      0.072100000000     0.503100000000     0.110350000000     0.128068   
H45      H      0.072100000000     0.503100000000     0.610350000000     0.128068   
H45      H      0.405433333333     0.003100000000     0.110350000000     0.128068   
H45      H      0.405433333333     0.003100000000     0.610350000000     0.128068   
H45      H      0.405433333333     0.503100000000     0.110350000000     0.128068   
H45      H      0.405433333333     0.503100000000     0.610350000000     0.128068   
H45      H      0.738766666667     0.003100000000     0.110350000000     0.128068   
H45      H      0.738766666667     0.003100000000     0.610350000000     0.128068   
H45      H      0.738766666667     0.503100000000     0.110350000000     0.128068   
H45      H      0.738766666667     0.503100000000     0.610350000000     0.128068   
H46      H      0.101866666667     0.077550000000     0.215600000000     0.133787   
H46      H      0.101866666667     0.077550000000     0.715600000000     0.133787   
H46      H      0.101866666667     0.577550000000     0.215600000000     0.133787   
H46      H      0.101866666667     0.577550000000     0.715600000000     0.133787   
H46      H      0.435200000000     0.077550000000     0.215600000000     0.133787   
H46      H      0.435200000000     0.077550000000     0.715600000000     0.133787   
H46      H      0.435200000000     0.577550000000     0.215600000000     0.133787   
H46      H      0.435200000000     0.577550000000     0.715600000000     0.133787   
H46      H      0.768533333333     0.077550000000     0.215600000000     0.133787   
H46      H      0.768533333333     0.077550000000     0.715600000000     0.133787   
H46      H      0.768533333333     0.577550000000     0.215600000000     0.133787   
H46      H      0.768533333333     0.577550000000     0.715600000000     0.133787   
H47      H      0.316866666667     0.385900000000     0.047900000000     0.111554   
H47      H      0.316866666667     0.385900000000     0.547900000000     0.111554   
H47      H      0.316866666667     0.885900000000     0.047900000000     0.111554   
H47      H      0.316866666667     0.885900000000     0.547900000000     0.111554   
H47      H      0.650200000000     0.385900000000     0.047900000000     0.111554   
H47      H      0.650200000000     0.385900000000     0.547900000000     0.111554   
H47      H      0.650200000000     0.885900000000     0.047900000000     0.111554   
H47      H      0.650200000000     0.885900000000     0.547900000000     0.111554   
H47      H      0.983533333333     0.385900000000     0.047900000000     0.111554   
H47      H      0.983533333333     0.385900000000     0.547900000000     0.111554   
H47      H      0.983533333333     0.885900000000     0.047900000000     0.111554   
H47      H      0.983533333333     0.885900000000     0.547900000000     0.111554   
H48      H      0.148733333333     0.030200000000     0.225200000000     0.116754   
H48      H      0.148733333333     0.030200000000     0.725200000000     0.116754   
H48      H      0.148733333333     0.530200000000     0.225200000000     0.116754   
H48      H      0.148733333333     0.530200000000     0.725200000000     0.116754   
H48      H      0.482066666667     0.030200000000     0.225200000000     0.116754   
H48      H      0.482066666667     0.030200000000     0.725200000000     0.116754   
H48      H      0.482066666667     0.530200000000     0.225200000000     0.116754   
H48      H      0.482066666667     0.530200000000     0.725200000000     0.116754   
H48      H      0.815400000000     0.030200000000     0.225200000000     0.116754   
H48      H      0.815400000000     0.030200000000     0.725200000000     0.116754   
H48      H      0.815400000000     0.530200000000     0.225200000000     0.116754   
H48      H      0.815400000000     0.530200000000     0.725200000000     0.116754   
H49      H      0.173300000000     0.451550000000     0.247300000000     0.121758   
H49      H      0.173300000000     0.451550000000     0.747300000000     0.121758   
H49      H      0.173300000000     0.951550000000     0.247300000000     0.121758   
H49      H      0.173300000000     0.951550000000     0.747300000000     0.121758   
H49      H      0.506633333333     0.451550000000     0.247300000000     0.121758   
H49      H      0.506633333333     0.451550000000     0.747300000000     0.121758   
H49      H      0.506633333333     0.951550000000     0.247300000000     0.121758   
H49      H      0.506633333333     0.951550000000     0.747300000000     0.121758   
H49      H      0.839966666667     0.451550000000     0.247300000000     0.121758   
H49      H      0.839966666667     0.451550000000     0.747300000000     0.121758   
H49      H      0.839966666667     0.951550000000     0.247300000000     0.121758   
H49      H      0.839966666667     0.951550000000     0.747300000000     0.121758   
H50      H      0.222900000000     0.406500000000     0.226750000000     0.121758   
H50      H      0.222900000000     0.406500000000     0.726750000000     0.121758   
H50      H      0.222900000000     0.906500000000     0.226750000000     0.121758   
H50      H      0.222900000000     0.906500000000     0.726750000000     0.121758   
H50      H      0.556233333333     0.406500000000     0.226750000000     0.121758   
H50      H      0.556233333333     0.406500000000     0.726750000000     0.121758   
H50      H      0.556233333333     0.906500000000     0.226750000000     0.121758   
H50      H      0.556233333333     0.906500000000     0.726750000000     0.121758   
H50      H      0.889566666667     0.406500000000     0.226750000000     0.121758   
H50      H      0.889566666667     0.406500000000     0.726750000000     0.121758   
H50      H      0.889566666667     0.906500000000     0.226750000000     0.121758   
H50      H      0.889566666667     0.906500000000     0.726750000000     0.121758   
H51      H      0.018533333333     0.465600000000     0.172450000000     0.116601   
H51      H      0.018533333333     0.465600000000     0.672450000000     0.116601   
H51      H      0.018533333333     0.965600000000     0.172450000000     0.116601   
H51      H      0.018533333333     0.965600000000     0.672450000000     0.116601   
H51      H      0.351866666667     0.465600000000     0.172450000000     0.116601   
H51      H      0.351866666667     0.465600000000     0.672450000000     0.116601   
H51      H      0.351866666667     0.965600000000     0.172450000000     0.116601   
H51      H      0.351866666667     0.965600000000     0.672450000000     0.116601   
H51      H      0.685200000000     0.465600000000     0.172450000000     0.116601   
H51      H      0.685200000000     0.465600000000     0.672450000000     0.116601   
H51      H      0.685200000000     0.965600000000     0.172450000000     0.116601   
H51      H      0.685200000000     0.965600000000     0.672450000000     0.116601   
H52      H      0.065400000000     0.475200000000     0.219800000000     0.088546   
H52      H      0.065400000000     0.475200000000     0.719800000000     0.088546   
H52      H      0.065400000000     0.975200000000     0.219800000000     0.088546   
H52      H      0.065400000000     0.975200000000     0.719800000000     0.088546   
H52      H      0.398733333333     0.475200000000     0.219800000000     0.088546   
H52      H      0.398733333333     0.475200000000     0.719800000000     0.088546   
H52      H      0.398733333333     0.975200000000     0.219800000000     0.088546   
H52      H      0.398733333333     0.975200000000     0.719800000000     0.088546   
H52      H      0.732066666667     0.475200000000     0.219800000000     0.088546   
H52      H      0.732066666667     0.475200000000     0.719800000000     0.088546   
H52      H      0.732066666667     0.975200000000     0.219800000000     0.088546   
H52      H      0.732066666667     0.975200000000     0.719800000000     0.088546   
H53      H      0.099800000000     0.364100000000     0.297900000000     0.137569   
H53      H      0.099800000000     0.364100000000     0.797900000000     0.137569   
H53      H      0.099800000000     0.864100000000     0.297900000000     0.137569   
H53      H      0.099800000000     0.864100000000     0.797900000000     0.137569   
H53      H      0.433133333333     0.364100000000     0.297900000000     0.137569   
H53      H      0.433133333333     0.364100000000     0.797900000000     0.137569   
H53      H      0.433133333333     0.864100000000     0.297900000000     0.137569   
H53      H      0.433133333333     0.864100000000     0.797900000000     0.137569   
H53      H      0.766466666667     0.364100000000     0.297900000000     0.137569   
H53      H      0.766466666667     0.364100000000     0.797900000000     0.137569   
H53      H      0.766466666667     0.864100000000     0.297900000000     0.137569   
H53      H      0.766466666667     0.864100000000     0.797900000000     0.137569   
H54      H      0.089966666667     0.497300000000     0.298450000000     0.096724   
H54      H      0.089966666667     0.497300000000     0.798450000000     0.096724   
H54      H      0.089966666667     0.997300000000     0.298450000000     0.096724   
H54      H      0.089966666667     0.997300000000     0.798450000000     0.096724   
H54      H      0.423300000000     0.497300000000     0.298450000000     0.096724   
H54      H      0.423300000000     0.497300000000     0.798450000000     0.096724   
H54      H      0.423300000000     0.997300000000     0.298450000000     0.096724   
H54      H      0.423300000000     0.997300000000     0.798450000000     0.096724   
H54      H      0.756633333333     0.497300000000     0.298450000000     0.096724   
H54      H      0.756633333333     0.497300000000     0.798450000000     0.096724   
H54      H      0.756633333333     0.997300000000     0.298450000000     0.096724   
H54      H      0.756633333333     0.997300000000     0.798450000000     0.096724   
H55      H      0.139566666667     0.476750000000     0.343500000000     0.096724   
H55      H      0.139566666667     0.476750000000     0.843500000000     0.096724   
H55      H      0.139566666667     0.976750000000     0.343500000000     0.096724   
H55      H      0.139566666667     0.976750000000     0.843500000000     0.096724   
H55      H      0.472900000000     0.476750000000     0.343500000000     0.096724   
H55      H      0.472900000000     0.476750000000     0.843500000000     0.096724   
H55      H      0.472900000000     0.976750000000     0.343500000000     0.096724   
H55      H      0.472900000000     0.976750000000     0.843500000000     0.096724   
H55      H      0.806233333333     0.476750000000     0.343500000000     0.096724   
H55      H      0.806233333333     0.476750000000     0.843500000000     0.096724   
H55      H      0.806233333333     0.976750000000     0.343500000000     0.096724   
H55      H      0.806233333333     0.976750000000     0.843500000000     0.096724   
H56      H      0.183133333333     0.452100000000     0.114100000000     0.137569   
H56      H      0.183133333333     0.452100000000     0.614100000000     0.137569   
H56      H      0.183133333333     0.952100000000     0.114100000000     0.137569   
H56      H      0.183133333333     0.952100000000     0.614100000000     0.137569   
H56      H      0.516466666667     0.452100000000     0.114100000000     0.137569   
H56      H      0.516466666667     0.452100000000     0.614100000000     0.137569   
H56      H      0.516466666667     0.952100000000     0.114100000000     0.137569   
H56      H      0.516466666667     0.952100000000     0.614100000000     0.137569   
H56      H      0.849800000000     0.452100000000     0.114100000000     0.137569   
H56      H      0.849800000000     0.452100000000     0.614100000000     0.137569   
H56      H      0.849800000000     0.952100000000     0.114100000000     0.137569   
H56      H      0.849800000000     0.952100000000     0.614100000000     0.137569   
H57      H      0.097800000000     0.012250000000     0.399350000000     0.088546   
H57      H      0.097800000000     0.012250000000     0.899350000000     0.088546   
H57      H      0.097800000000     0.512250000000     0.399350000000     0.088546   
H57      H      0.097800000000     0.512250000000     0.899350000000     0.088546   
H57      H      0.431133333333     0.012250000000     0.399350000000     0.088546   
H57      H      0.431133333333     0.012250000000     0.899350000000     0.088546   
H57      H      0.431133333333     0.512250000000     0.399350000000     0.088546   
H57      H      0.431133333333     0.512250000000     0.899350000000     0.088546   
H57      H      0.764466666667     0.012250000000     0.399350000000     0.088546   
H57      H      0.764466666667     0.012250000000     0.899350000000     0.088546   
H57      H      0.764466666667     0.512250000000     0.399350000000     0.088546   
H57      H      0.764466666667     0.512250000000     0.899350000000     0.088546   
H58      H      0.017933333333     0.274800000000     0.469800000000     0.130393   
H58      H      0.017933333333     0.274800000000     0.969800000000     0.130393   
H58      H      0.017933333333     0.774800000000     0.469800000000     0.130393   
H58      H      0.017933333333     0.774800000000     0.969800000000     0.130393   
H58      H      0.351266666667     0.274800000000     0.469800000000     0.130393   
H58      H      0.351266666667     0.274800000000     0.969800000000     0.130393   
H58      H      0.351266666667     0.774800000000     0.469800000000     0.130393   
H58      H      0.351266666667     0.774800000000     0.969800000000     0.130393   
H58      H      0.684600000000     0.274800000000     0.469800000000     0.130393   
H58      H      0.684600000000     0.274800000000     0.969800000000     0.130393   
H58      H      0.684600000000     0.774800000000     0.469800000000     0.130393   
H58      H      0.684600000000     0.774800000000     0.969800000000     0.130393   
H59      H      0.094566666667     0.389650000000     0.496900000000     0.130393   
H59      H      0.094566666667     0.389650000000     0.996900000000     0.130393   
H59      H      0.094566666667     0.889650000000     0.496900000000     0.130393   
H59      H      0.094566666667     0.889650000000     0.996900000000     0.130393   
H59      H      0.427900000000     0.389650000000     0.496900000000     0.130393   
H59      H      0.427900000000     0.389650000000     0.996900000000     0.130393   
H59      H      0.427900000000     0.889650000000     0.496900000000     0.130393   
H59      H      0.427900000000     0.889650000000     0.996900000000     0.130393   
H59      H      0.761233333333     0.389650000000     0.496900000000     0.130393   
H59      H      0.761233333333     0.389650000000     0.996900000000     0.130393   
H59      H      0.761233333333     0.889650000000     0.496900000000     0.130393   
H59      H      0.761233333333     0.889650000000     0.996900000000     0.130393   
H60      H      0.318866666667     0.237750000000     0.149350000000    -0.213959   
H60      H      0.318866666667     0.237750000000     0.649350000000    -0.213959   
H60      H      0.318866666667     0.737750000000     0.149350000000    -0.213959   
H60      H      0.318866666667     0.737750000000     0.649350000000    -0.213959   
H60      H      0.652200000000     0.237750000000     0.149350000000    -0.213959   
H60      H      0.652200000000     0.237750000000     0.649350000000    -0.213959   
H60      H      0.652200000000     0.737750000000     0.149350000000    -0.213959   
H60      H      0.652200000000     0.737750000000     0.649350000000    -0.213959   
H60      H      0.985533333333     0.237750000000     0.149350000000    -0.213959   
H60      H      0.985533333333     0.237750000000     0.649350000000    -0.213959   
H60      H      0.985533333333     0.737750000000     0.149350000000    -0.213959   
H60      H      0.985533333333     0.737750000000     0.649350000000    -0.213959   
H61      H      0.319666666667     0.298400000000     0.203650000000    -0.213959   
H61      H      0.319666666667     0.298400000000     0.703650000000    -0.213959   
H61      H      0.319666666667     0.798400000000     0.203650000000    -0.213959   
H61      H      0.319666666667     0.798400000000     0.703650000000    -0.213959   
H61      H      0.653000000000     0.298400000000     0.203650000000    -0.213959   
H61      H      0.653000000000     0.298400000000     0.703650000000    -0.213959   
H61      H      0.653000000000     0.798400000000     0.203650000000    -0.213959   
H61      H      0.653000000000     0.798400000000     0.703650000000    -0.213959   
H61      H      0.986333333333     0.298400000000     0.203650000000    -0.213959   
H61      H      0.986333333333     0.298400000000     0.703650000000    -0.213959   
H61      H      0.986333333333     0.798400000000     0.203650000000    -0.213959   
H61      H      0.986333333333     0.798400000000     0.703650000000    -0.213959   
H62      H      0.027100000000     0.156500000000     0.023250000000     0.010061   
H62      H      0.027100000000     0.156500000000     0.523250000000     0.010061   
H62      H      0.027100000000     0.656500000000     0.023250000000     0.010061   
H62      H      0.027100000000     0.656500000000     0.523250000000     0.010061   
H62      H      0.360433333333     0.156500000000     0.023250000000     0.010061   
H62      H      0.360433333333     0.156500000000     0.523250000000     0.010061   
H62      H      0.360433333333     0.656500000000     0.023250000000     0.010061   
H62      H      0.360433333333     0.656500000000     0.523250000000     0.010061   
H62      H      0.693766666667     0.156500000000     0.023250000000     0.010061   
H62      H      0.693766666667     0.156500000000     0.523250000000     0.010061   
H62      H      0.693766666667     0.656500000000     0.023250000000     0.010061   
H62      H      0.693766666667     0.656500000000     0.523250000000     0.010061   
H63      H      0.076700000000     0.201550000000     0.002700000000    -0.262441   
H63      H      0.076700000000     0.201550000000     0.502700000000    -0.262441   
H63      H      0.076700000000     0.701550000000     0.002700000000    -0.262441   
H63      H      0.076700000000     0.701550000000     0.502700000000    -0.262441   
H63      H      0.410033333333     0.201550000000     0.002700000000    -0.262441   
H63      H      0.410033333333     0.201550000000     0.502700000000    -0.262441   
H63      H      0.410033333333     0.701550000000     0.002700000000    -0.262441   
H63      H      0.410033333333     0.701550000000     0.502700000000    -0.262441   
H63      H      0.743366666667     0.201550000000     0.002700000000    -0.262441   
H63      H      0.743366666667     0.201550000000     0.502700000000    -0.262441   
H63      H      0.743366666667     0.701550000000     0.002700000000    -0.262441   
H63      H      0.743366666667     0.701550000000     0.502700000000    -0.262441   
H64      H      0.066866666667     0.202100000000     0.135900000000     0.010059   
H64      H      0.066866666667     0.202100000000     0.635900000000     0.010059   
H64      H      0.066866666667     0.702100000000     0.135900000000     0.010059   
H64      H      0.066866666667     0.702100000000     0.635900000000     0.010059   
H64      H      0.400200000000     0.202100000000     0.135900000000     0.010059   
H64      H      0.400200000000     0.202100000000     0.635900000000     0.010059   
H64      H      0.400200000000     0.702100000000     0.135900000000     0.010059   
H64      H      0.400200000000     0.702100000000     0.635900000000     0.010059   
H64      H      0.733533333333     0.202100000000     0.135900000000     0.010059   
H64      H      0.733533333333     0.202100000000     0.635900000000     0.010059   
H64      H      0.733533333333     0.702100000000     0.135900000000     0.010059   
H64      H      0.733533333333     0.702100000000     0.635900000000     0.010059   
H65      H      0.101266666667     0.280200000000     0.024800000000    -0.262441   
H65      H      0.101266666667     0.280200000000     0.524800000000    -0.262441   
H65      H      0.101266666667     0.780200000000     0.024800000000    -0.262441   
H65      H      0.101266666667     0.780200000000     0.524800000000    -0.262441   
H65      H      0.434600000000     0.280200000000     0.024800000000    -0.262441   
H65      H      0.434600000000     0.280200000000     0.524800000000    -0.262441   
H65      H      0.434600000000     0.780200000000     0.024800000000    -0.262441   
H65      H      0.434600000000     0.780200000000     0.524800000000    -0.262441   
H65      H      0.767933333333     0.280200000000     0.024800000000    -0.262441   
H65      H      0.767933333333     0.280200000000     0.524800000000    -0.262441   
H65      H      0.767933333333     0.780200000000     0.024800000000    -0.262441   
H65      H      0.767933333333     0.780200000000     0.524800000000    -0.262441   
H66      H      0.148133333333     0.327550000000     0.034400000000    -0.262441   
H66      H      0.148133333333     0.327550000000     0.534400000000    -0.262441   
H66      H      0.148133333333     0.827550000000     0.034400000000    -0.262441   
H66      H      0.148133333333     0.827550000000     0.534400000000    -0.262441   
H66      H      0.481466666667     0.327550000000     0.034400000000    -0.262441   
H66      H      0.481466666667     0.327550000000     0.534400000000    -0.262441   
H66      H      0.481466666667     0.827550000000     0.034400000000    -0.262441   
H66      H      0.481466666667     0.827550000000     0.534400000000    -0.262441   
H66      H      0.814800000000     0.327550000000     0.034400000000    -0.262441   
H66      H      0.814800000000     0.327550000000     0.534400000000    -0.262441   
H66      H      0.814800000000     0.827550000000     0.034400000000    -0.262441   
H66      H      0.814800000000     0.827550000000     0.534400000000    -0.262441   
H67      H      0.064800000000     0.284400000000     0.422450000000    -0.262441   
H67      H      0.064800000000     0.284400000000     0.922450000000    -0.262441   
H67      H      0.064800000000     0.784400000000     0.422450000000    -0.262441   
H67      H      0.064800000000     0.784400000000     0.922450000000    -0.262441   
H67      H      0.398133333333     0.284400000000     0.422450000000    -0.262441   
H67      H      0.398133333333     0.284400000000     0.922450000000    -0.262441   
H67      H      0.398133333333     0.784400000000     0.422450000000    -0.262441   
H67      H      0.398133333333     0.784400000000     0.922450000000    -0.262441   
H67      H      0.731466666667     0.284400000000     0.422450000000    -0.262441   
H67      H      0.731466666667     0.284400000000     0.922450000000    -0.262441   
H67      H      0.731466666667     0.784400000000     0.422450000000    -0.262441   
H67      H      0.731466666667     0.784400000000     0.922450000000    -0.262441   
H68      H      0.177900000000     0.253100000000     0.139650000000     0.010059   
H68      H      0.177900000000     0.253100000000     0.639650000000     0.010059   
H68      H      0.177900000000     0.753100000000     0.139650000000     0.010059   
H68      H      0.177900000000     0.753100000000     0.639650000000     0.010059   
H68      H      0.511233333333     0.253100000000     0.139650000000     0.010059   
H68      H      0.511233333333     0.253100000000     0.639650000000     0.010059   
H68      H      0.511233333333     0.753100000000     0.139650000000     0.010059   
H68      H      0.511233333333     0.753100000000     0.639650000000     0.010059   
H68      H      0.844566666667     0.253100000000     0.139650000000     0.010059   
H68      H      0.844566666667     0.253100000000     0.639650000000     0.010059   
H68      H      0.844566666667     0.753100000000     0.139650000000     0.010059   
H68      H      0.844566666667     0.753100000000     0.639650000000     0.010059   
H69      H      0.014466666667     0.149350000000     0.237750000000    -0.213959   
H69      H      0.014466666667     0.149350000000     0.737750000000    -0.213959   
H69      H      0.014466666667     0.649350000000     0.237750000000    -0.213959   
H69      H      0.014466666667     0.649350000000     0.737750000000    -0.213959   
H69      H      0.347800000000     0.149350000000     0.237750000000    -0.213959   
H69      H      0.347800000000     0.149350000000     0.737750000000    -0.213959   
H69      H      0.347800000000     0.649350000000     0.237750000000    -0.213959   
H69      H      0.347800000000     0.649350000000     0.737750000000    -0.213959   
H69      H      0.681133333333     0.149350000000     0.237750000000    -0.213959   
H69      H      0.681133333333     0.149350000000     0.737750000000    -0.213959   
H69      H      0.681133333333     0.649350000000     0.237750000000    -0.213959   
H69      H      0.681133333333     0.649350000000     0.737750000000    -0.213959   
H70      H      0.013666666667     0.203650000000     0.298400000000    -0.262444   
H70      H      0.013666666667     0.203650000000     0.798400000000    -0.262444   
H70      H      0.013666666667     0.703650000000     0.298400000000    -0.262444   
H70      H      0.013666666667     0.703650000000     0.798400000000    -0.262444   
H70      H      0.347000000000     0.203650000000     0.298400000000    -0.262444   
H70      H      0.347000000000     0.203650000000     0.798400000000    -0.262444   
H70      H      0.347000000000     0.703650000000     0.298400000000    -0.262444   
H70      H      0.347000000000     0.703650000000     0.798400000000    -0.262444   
H70      H      0.680333333333     0.203650000000     0.298400000000    -0.262444   
H70      H      0.680333333333     0.203650000000     0.798400000000    -0.262444   
H70      H      0.680333333333     0.703650000000     0.298400000000    -0.262444   
H70      H      0.680333333333     0.703650000000     0.798400000000    -0.262444   
H71      H      0.000000000000     0.277050000000     0.277050000000     0.010059   
H71      H      0.000000000000     0.277050000000     0.777050000000     0.010059   
H71      H      0.000000000000     0.777050000000     0.277050000000     0.010059   
H71      H      0.000000000000     0.777050000000     0.777050000000     0.010059   
H71      H      0.333333333333     0.277050000000     0.277050000000     0.010059   
H71      H      0.333333333333     0.277050000000     0.777050000000     0.010059   
H71      H      0.333333333333     0.777050000000     0.277050000000     0.010059   
H71      H      0.333333333333     0.777050000000     0.777050000000     0.010059   
H71      H      0.666666666667     0.277050000000     0.277050000000     0.010059   
H71      H      0.666666666667     0.277050000000     0.777050000000     0.010059   
H71      H      0.666666666667     0.777050000000     0.277050000000     0.010059   
H71      H      0.666666666667     0.777050000000     0.777050000000     0.010059   
H72      H      0.250000000000     0.027050000000     0.472950000000    -0.262444   
H72      H      0.250000000000     0.027050000000     0.972950000000    -0.262444   
H72      H      0.250000000000     0.527050000000     0.472950000000    -0.262444   
H72      H      0.250000000000     0.527050000000     0.972950000000    -0.262444   
H72      H      0.583333333333     0.027050000000     0.472950000000    -0.262444   
H72      H      0.583333333333     0.027050000000     0.972950000000    -0.262444   
H72      H      0.583333333333     0.527050000000     0.472950000000    -0.262444   
H72      H      0.583333333333     0.527050000000     0.972950000000    -0.262444   
H72      H      0.916666666667     0.027050000000     0.472950000000    -0.262444   
H72      H      0.916666666667     0.027050000000     0.972950000000    -0.262444   
H72      H      0.916666666667     0.527050000000     0.472950000000    -0.262444   
H72      H      0.916666666667     0.527050000000     0.972950000000    -0.262444   
H73      H      0.263666666667     0.048400000000     0.046350000000     0.010061   
H73      H      0.263666666667     0.048400000000     0.546350000000     0.010061   
H73      H      0.263666666667     0.548400000000     0.046350000000     0.010061   
H73      H      0.263666666667     0.548400000000     0.546350000000     0.010061   
H73      H      0.597000000000     0.048400000000     0.046350000000     0.010061   
H73      H      0.597000000000     0.048400000000     0.546350000000     0.010061   
H73      H      0.597000000000     0.548400000000     0.046350000000     0.010061   
H73      H      0.597000000000     0.548400000000     0.546350000000     0.010061   
H73      H      0.930333333333     0.048400000000     0.046350000000     0.010061   
H73      H      0.930333333333     0.048400000000     0.546350000000     0.010061   
H73      H      0.930333333333     0.548400000000     0.046350000000     0.010061   
H73      H      0.930333333333     0.548400000000     0.546350000000     0.010061   
H74      H      0.264466666667     0.487750000000     0.100650000000    -0.262441   
H74      H      0.264466666667     0.487750000000     0.600650000000    -0.262441   
H74      H      0.264466666667     0.987750000000     0.100650000000    -0.262441   
H74      H      0.264466666667     0.987750000000     0.600650000000    -0.262441   
H74      H      0.597800000000     0.487750000000     0.100650000000    -0.262441   
H74      H      0.597800000000     0.487750000000     0.600650000000    -0.262441   
H74      H      0.597800000000     0.987750000000     0.100650000000    -0.262441   
H74      H      0.597800000000     0.987750000000     0.600650000000    -0.262441   
H74      H      0.931133333333     0.487750000000     0.100650000000    -0.262441   
H74      H      0.931133333333     0.487750000000     0.600650000000    -0.262441   
H74      H      0.931133333333     0.987750000000     0.100650000000    -0.262441   
H74      H      0.931133333333     0.987750000000     0.600650000000    -0.262441   
H75      H      0.047033333333     0.381400000000     0.043100000000     0.010059   
H75      H      0.047033333333     0.381400000000     0.543100000000     0.010059   
H75      H      0.047033333333     0.881400000000     0.043100000000     0.010059   
H75      H      0.047033333333     0.881400000000     0.543100000000     0.010059   
H75      H      0.380366666667     0.381400000000     0.043100000000     0.010059   
H75      H      0.380366666667     0.381400000000     0.543100000000     0.010059   
H75      H      0.380366666667     0.881400000000     0.043100000000     0.010059   
H75      H      0.380366666667     0.881400000000     0.543100000000     0.010059   
H75      H      0.713700000000     0.381400000000     0.043100000000     0.010059   
H75      H      0.713700000000     0.381400000000     0.543100000000     0.010059   
H75      H      0.713700000000     0.881400000000     0.043100000000     0.010059   
H75      H      0.713700000000     0.881400000000     0.543100000000     0.010059   
H76      H      0.130366666667     0.206900000000     0.131400000000    -0.213958   
H76      H      0.130366666667     0.206900000000     0.631400000000    -0.213958   
H76      H      0.130366666667     0.706900000000     0.131400000000    -0.213958   
H76      H      0.130366666667     0.706900000000     0.631400000000    -0.213958   
H76      H      0.463700000000     0.206900000000     0.131400000000    -0.213958   
H76      H      0.463700000000     0.206900000000     0.631400000000    -0.213958   
H76      H      0.463700000000     0.706900000000     0.131400000000    -0.213958   
H76      H      0.463700000000     0.706900000000     0.631400000000    -0.213958   
H76      H      0.797033333333     0.206900000000     0.131400000000    -0.213958   
H76      H      0.797033333333     0.206900000000     0.631400000000    -0.213958   
H76      H      0.797033333333     0.706900000000     0.131400000000    -0.213958   
H76      H      0.797033333333     0.706900000000     0.631400000000    -0.213958   
N1       N      0.000000000000     0.190100000000     0.190100000000     0.010061   
N1       N      0.000000000000     0.190100000000     0.690100000000     0.010061   
N1       N      0.000000000000     0.690100000000     0.190100000000     0.010061   
N1       N      0.000000000000     0.690100000000     0.690100000000     0.010061   
N1       N      0.333333333333     0.190100000000     0.190100000000     0.010061   
N1       N      0.333333333333     0.190100000000     0.690100000000     0.010061   
N1       N      0.333333333333     0.690100000000     0.190100000000     0.010061   
N1       N      0.333333333333     0.690100000000     0.690100000000     0.010061   
N1       N      0.666666666667     0.190100000000     0.190100000000     0.010061   
N1       N      0.666666666667     0.190100000000     0.690100000000     0.010061   
N1       N      0.666666666667     0.690100000000     0.190100000000     0.010061   
N1       N      0.666666666667     0.690100000000     0.690100000000     0.010061   
N2       N      0.166666666667     0.309900000000     0.309900000000    -0.262444   
N2       N      0.166666666667     0.309900000000     0.809900000000    -0.262444   
N2       N      0.166666666667     0.809900000000     0.309900000000    -0.262444   
N2       N      0.166666666667     0.809900000000     0.809900000000    -0.262444   
N2       N      0.500000000000     0.309900000000     0.309900000000    -0.262444   
N2       N      0.500000000000     0.309900000000     0.809900000000    -0.262444   
N2       N      0.500000000000     0.809900000000     0.309900000000    -0.262444   
N2       N      0.500000000000     0.809900000000     0.809900000000    -0.262444   
N2       N      0.833333333333     0.309900000000     0.309900000000    -0.262444   
N2       N      0.833333333333     0.309900000000     0.809900000000    -0.262444   
N2       N      0.833333333333     0.809900000000     0.309900000000    -0.262444   
N2       N      0.833333333333     0.809900000000     0.809900000000    -0.262444   
N3       N      0.084233333333     0.428600000000     0.288300000000     0.010059   
N3       N      0.084233333333     0.428600000000     0.788300000000     0.010059   
N3       N      0.084233333333     0.928600000000     0.288300000000     0.010059   
N3       N      0.084233333333     0.928600000000     0.788300000000     0.010059   
N3       N      0.417566666667     0.428600000000     0.288300000000     0.010059   
N3       N      0.417566666667     0.428600000000     0.788300000000     0.010059   
N3       N      0.417566666667     0.928600000000     0.288300000000     0.010059   
N3       N      0.417566666667     0.928600000000     0.788300000000     0.010059   
N3       N      0.750900000000     0.428600000000     0.288300000000     0.010059   
N3       N      0.750900000000     0.428600000000     0.788300000000     0.010059   
N3       N      0.750900000000     0.928600000000     0.288300000000     0.010059   
N3       N      0.750900000000     0.928600000000     0.788300000000     0.010059   
N4       N      0.120933333333     0.159950000000     0.422100000000    -0.588909   
N4       N      0.120933333333     0.159950000000     0.922100000000    -0.588909   
N4       N      0.120933333333     0.659950000000     0.422100000000    -0.588909   
N4       N      0.120933333333     0.659950000000     0.922100000000    -0.588909   
N4       N      0.454266666667     0.159950000000     0.422100000000    -0.588909   
N4       N      0.454266666667     0.159950000000     0.922100000000    -0.588909   
N4       N      0.454266666667     0.659950000000     0.422100000000    -0.588909   
N4       N      0.454266666667     0.659950000000     0.922100000000    -0.588909   
N4       N      0.787600000000     0.159950000000     0.422100000000    -0.588909   
N4       N      0.787600000000     0.159950000000     0.922100000000    -0.588909   
N4       N      0.787600000000     0.659950000000     0.422100000000    -0.588909   
N4       N      0.787600000000     0.659950000000     0.922100000000    -0.588909   
N5       N      0.000900000000     0.038300000000     0.321400000000    -0.553836   
N5       N      0.000900000000     0.038300000000     0.821400000000    -0.553836   
N5       N      0.000900000000     0.538300000000     0.321400000000    -0.553836   
N5       N      0.000900000000     0.538300000000     0.821400000000    -0.553836   
N5       N      0.334233333333     0.038300000000     0.321400000000    -0.553836   
N5       N      0.334233333333     0.038300000000     0.821400000000    -0.553836   
N5       N      0.334233333333     0.538300000000     0.321400000000    -0.553836   
N5       N      0.334233333333     0.538300000000     0.821400000000    -0.553836   
N5       N      0.667566666667     0.038300000000     0.321400000000    -0.553836   
N5       N      0.667566666667     0.038300000000     0.821400000000    -0.553836   
N5       N      0.667566666667     0.538300000000     0.321400000000    -0.553836   
N5       N      0.667566666667     0.538300000000     0.821400000000    -0.553836   
N6       N      0.045733333333     0.077900000000     0.340050000000    -0.553836   
N6       N      0.045733333333     0.077900000000     0.840050000000    -0.553836   
N6       N      0.045733333333     0.577900000000     0.340050000000    -0.553836   
N6       N      0.045733333333     0.577900000000     0.840050000000    -0.553836   
N6       N      0.379066666667     0.077900000000     0.340050000000    -0.553836   
N6       N      0.379066666667     0.077900000000     0.840050000000    -0.553836   
N6       N      0.379066666667     0.577900000000     0.340050000000    -0.553836   
N6       N      0.379066666667     0.577900000000     0.840050000000    -0.553836   
N6       N      0.712400000000     0.077900000000     0.340050000000    -0.553836   
N6       N      0.712400000000     0.077900000000     0.840050000000    -0.553836   
N6       N      0.712400000000     0.577900000000     0.340050000000    -0.553836   
N6       N      0.712400000000     0.577900000000     0.840050000000    -0.553836   
N7       N      0.037600000000     0.172100000000     0.090050000000    -0.588909   
N7       N      0.037600000000     0.172100000000     0.590050000000    -0.588909   
N7       N      0.037600000000     0.672100000000     0.090050000000    -0.588909   
N7       N      0.037600000000     0.672100000000     0.590050000000    -0.588909   
N7       N      0.370933333333     0.172100000000     0.090050000000    -0.588909   
N7       N      0.370933333333     0.172100000000     0.590050000000    -0.588909   
N7       N      0.370933333333     0.672100000000     0.090050000000    -0.588909   
N7       N      0.370933333333     0.672100000000     0.590050000000    -0.588909   
N7       N      0.704266666667     0.172100000000     0.090050000000    -0.588909   
N7       N      0.704266666667     0.172100000000     0.590050000000    -0.588909   
N7       N      0.704266666667     0.672100000000     0.090050000000    -0.588909   
N7       N      0.704266666667     0.672100000000     0.590050000000    -0.588909   
N8       N      0.295733333333     0.090050000000     0.172100000000    -0.553836   
N8       N      0.295733333333     0.090050000000     0.672100000000    -0.553836   
N8       N      0.295733333333     0.590050000000     0.172100000000    -0.553836   
N8       N      0.295733333333     0.590050000000     0.672100000000    -0.553836   
N8       N      0.629066666667     0.090050000000     0.172100000000    -0.553836   
N8       N      0.629066666667     0.090050000000     0.672100000000    -0.553836   
N8       N      0.629066666667     0.590050000000     0.172100000000    -0.553836   
N8       N      0.629066666667     0.590050000000     0.672100000000    -0.553836   
N8       N      0.962400000000     0.090050000000     0.172100000000    -0.553836   
N8       N      0.962400000000     0.090050000000     0.672100000000    -0.553836   
N8       N      0.962400000000     0.590050000000     0.172100000000    -0.553836   
N8       N      0.962400000000     0.590050000000     0.672100000000    -0.553836   
N9       N      0.165766666667     0.178600000000     0.461700000000    -0.588909   
N9       N      0.165766666667     0.178600000000     0.961700000000    -0.588909   
N9       N      0.165766666667     0.678600000000     0.461700000000    -0.588909   
N9       N      0.165766666667     0.678600000000     0.961700000000    -0.588909   
N9       N      0.499100000000     0.178600000000     0.461700000000    -0.588909   
N9       N      0.499100000000     0.178600000000     0.961700000000    -0.588909   
N9       N      0.499100000000     0.678600000000     0.461700000000    -0.588909   
N9       N      0.499100000000     0.678600000000     0.961700000000    -0.588909   
N9       N      0.832433333333     0.178600000000     0.461700000000    -0.588909   
N9       N      0.832433333333     0.178600000000     0.961700000000    -0.588909   
N9       N      0.832433333333     0.678600000000     0.461700000000    -0.588909   
N9       N      0.832433333333     0.678600000000     0.961700000000    -0.588909   
N10      N      0.083333333333     0.059900000000     0.440100000000    -0.588909   
N10      N      0.083333333333     0.059900000000     0.940100000000    -0.588909   
N10      N      0.083333333333     0.559900000000     0.440100000000    -0.588909   
N10      N      0.083333333333     0.559900000000     0.940100000000    -0.588909   
N10      N      0.416666666667     0.059900000000     0.440100000000    -0.588909   
N10      N      0.416666666667     0.059900000000     0.940100000000    -0.588909   
N10      N      0.416666666667     0.559900000000     0.440100000000    -0.588909   
N10      N      0.416666666667     0.559900000000     0.940100000000    -0.588909   
N10      N      0.750000000000     0.059900000000     0.440100000000    -0.588909   
N10      N      0.750000000000     0.059900000000     0.940100000000    -0.588909   
N10      N      0.750000000000     0.559900000000     0.440100000000    -0.588909   
N10      N      0.750000000000     0.559900000000     0.940100000000    -0.588909   
N11      N      0.129066666667     0.409950000000     0.327900000000    -0.588909   
N11      N      0.129066666667     0.409950000000     0.827900000000    -0.588909   
N11      N      0.129066666667     0.909950000000     0.327900000000    -0.588909   
N11      N      0.129066666667     0.909950000000     0.827900000000    -0.588909   
N11      N      0.462400000000     0.409950000000     0.327900000000    -0.588909   
N11      N      0.462400000000     0.409950000000     0.827900000000    -0.588909   
N11      N      0.462400000000     0.909950000000     0.327900000000    -0.588909   
N11      N      0.462400000000     0.909950000000     0.827900000000    -0.588909   
N11      N      0.795733333333     0.409950000000     0.327900000000    -0.588909   
N11      N      0.795733333333     0.409950000000     0.827900000000    -0.588909   
N11      N      0.795733333333     0.909950000000     0.327900000000    -0.588909   
N11      N      0.795733333333     0.909950000000     0.827900000000    -0.588909   
N12      N      0.250900000000     0.071400000000     0.211700000000    -0.553836   
N12      N      0.250900000000     0.071400000000     0.711700000000    -0.553836   
N12      N      0.250900000000     0.571400000000     0.211700000000    -0.553836   
N12      N      0.250900000000     0.571400000000     0.711700000000    -0.553836   
N12      N      0.584233333333     0.071400000000     0.211700000000    -0.553836   
N12      N      0.584233333333     0.071400000000     0.711700000000    -0.553836   
N12      N      0.584233333333     0.571400000000     0.211700000000    -0.553836   
N12      N      0.584233333333     0.571400000000     0.711700000000    -0.553836   
N12      N      0.917566666667     0.071400000000     0.211700000000    -0.553836   
N12      N      0.917566666667     0.071400000000     0.711700000000    -0.553836   
N12      N      0.917566666667     0.571400000000     0.211700000000    -0.553836   
N12      N      0.917566666667     0.571400000000     0.711700000000    -0.553836   
N13      N      0.212400000000     0.422100000000     0.159950000000    -0.588909   
N13      N      0.212400000000     0.422100000000     0.659950000000    -0.588909   
N13      N      0.212400000000     0.922100000000     0.159950000000    -0.588909   
N13      N      0.212400000000     0.922100000000     0.659950000000    -0.588909   
N13      N      0.545733333333     0.422100000000     0.159950000000    -0.588909   
N13      N      0.545733333333     0.422100000000     0.659950000000    -0.588909   
N13      N      0.545733333333     0.922100000000     0.159950000000    -0.588909   
N13      N      0.545733333333     0.922100000000     0.659950000000    -0.588909   
N13      N      0.879066666667     0.422100000000     0.159950000000    -0.588909   
N13      N      0.879066666667     0.422100000000     0.659950000000    -0.588909   
N13      N      0.879066666667     0.922100000000     0.159950000000    -0.588909   
N13      N      0.879066666667     0.922100000000     0.659950000000    -0.588909   
N14      N      0.167566666667     0.461700000000     0.178600000000    -0.553836   
N14      N      0.167566666667     0.461700000000     0.678600000000    -0.553836   
N14      N      0.167566666667     0.961700000000     0.178600000000    -0.553836   
N14      N      0.167566666667     0.961700000000     0.678600000000    -0.553836   
N14      N      0.500900000000     0.461700000000     0.178600000000    -0.553836   
N14      N      0.500900000000     0.461700000000     0.678600000000    -0.553836   
N14      N      0.500900000000     0.961700000000     0.178600000000    -0.553836   
N14      N      0.500900000000     0.961700000000     0.678600000000    -0.553836   
N14      N      0.834233333333     0.461700000000     0.178600000000    -0.553836   
N14      N      0.834233333333     0.461700000000     0.678600000000    -0.553836   
N14      N      0.834233333333     0.961700000000     0.178600000000    -0.553836   
N14      N      0.834233333333     0.961700000000     0.678600000000    -0.553836   
N15      N      0.287600000000     0.340050000000     0.077900000000    -0.588909   
N15      N      0.287600000000     0.340050000000     0.577900000000    -0.588909   
N15      N      0.287600000000     0.840050000000     0.077900000000    -0.588909   
N15      N      0.287600000000     0.840050000000     0.577900000000    -0.588909   
N15      N      0.620933333333     0.340050000000     0.077900000000    -0.588909   
N15      N      0.620933333333     0.340050000000     0.577900000000    -0.588909   
N15      N      0.620933333333     0.840050000000     0.077900000000    -0.588909   
N15      N      0.620933333333     0.840050000000     0.577900000000    -0.588909   
N15      N      0.954266666667     0.340050000000     0.077900000000    -0.588909   
N15      N      0.954266666667     0.340050000000     0.577900000000    -0.588909   
N15      N      0.954266666667     0.840050000000     0.077900000000    -0.588909   
N15      N      0.954266666667     0.840050000000     0.577900000000    -0.588909   
N16      N      0.332433333333     0.321400000000     0.038300000000    -0.553836   
N16      N      0.332433333333     0.321400000000     0.538300000000    -0.553836   
N16      N      0.332433333333     0.821400000000     0.038300000000    -0.553836   
N16      N      0.332433333333     0.821400000000     0.538300000000    -0.553836   
N16      N      0.665766666667     0.321400000000     0.038300000000    -0.553836   
N16      N      0.665766666667     0.321400000000     0.538300000000    -0.553836   
N16      N      0.665766666667     0.821400000000     0.038300000000    -0.553836   
N16      N      0.665766666667     0.821400000000     0.538300000000    -0.553836   
N16      N      0.999100000000     0.321400000000     0.038300000000    -0.553836   
N16      N      0.999100000000     0.321400000000     0.538300000000    -0.553836   
N16      N      0.999100000000     0.821400000000     0.038300000000    -0.553836   
N16      N      0.999100000000     0.821400000000     0.538300000000    -0.553836   
N17      N      0.250000000000     0.440100000000     0.059900000000    -0.588909   
N17      N      0.250000000000     0.440100000000     0.559900000000    -0.588909   
N17      N      0.250000000000     0.940100000000     0.059900000000    -0.588909   
N17      N      0.250000000000     0.940100000000     0.559900000000    -0.588909   
N17      N      0.583333333333     0.440100000000     0.059900000000    -0.588909   
N17      N      0.583333333333     0.440100000000     0.559900000000    -0.588909   
N17      N      0.583333333333     0.940100000000     0.059900000000    -0.588909   
N17      N      0.583333333333     0.940100000000     0.559900000000    -0.588909   
N17      N      0.916666666667     0.440100000000     0.059900000000    -0.588909   
N17      N      0.916666666667     0.440100000000     0.559900000000    -0.588909   
N17      N      0.916666666667     0.940100000000     0.059900000000    -0.588909   
N17      N      0.916666666667     0.940100000000     0.559900000000    -0.588909   
N18      N      0.249100000000     0.288300000000     0.428600000000    -0.553836   
N18      N      0.249100000000     0.288300000000     0.928600000000    -0.553836   
N18      N      0.249100000000     0.788300000000     0.428600000000    -0.553836   
N18      N      0.249100000000     0.788300000000     0.928600000000    -0.553836   
N18      N      0.582433333333     0.288300000000     0.428600000000    -0.553836   
N18      N      0.582433333333     0.288300000000     0.928600000000    -0.553836   
N18      N      0.582433333333     0.788300000000     0.428600000000    -0.553836   
N18      N      0.582433333333     0.788300000000     0.928600000000    -0.553836   
N18      N      0.915766666667     0.288300000000     0.428600000000    -0.553836   
N18      N      0.915766666667     0.288300000000     0.928600000000    -0.553836   
N18      N      0.915766666667     0.788300000000     0.428600000000    -0.553836   
N18      N      0.915766666667     0.788300000000     0.928600000000    -0.553836   
N19      N      0.204266666667     0.327900000000     0.409950000000    -0.553836   
N19      N      0.204266666667     0.327900000000     0.909950000000    -0.553836   
N19      N      0.204266666667     0.827900000000     0.409950000000    -0.553836   
N19      N      0.204266666667     0.827900000000     0.909950000000    -0.553836   
N19      N      0.537600000000     0.327900000000     0.409950000000    -0.553836   
N19      N      0.537600000000     0.327900000000     0.909950000000    -0.553836   
N19      N      0.537600000000     0.827900000000     0.409950000000    -0.553836   
N19      N      0.537600000000     0.827900000000     0.909950000000    -0.553836   
N19      N      0.870933333333     0.327900000000     0.409950000000    -0.553836   
N19      N      0.870933333333     0.327900000000     0.909950000000    -0.553836   
N19      N      0.870933333333     0.827900000000     0.409950000000    -0.553836   
N19      N      0.870933333333     0.827900000000     0.909950000000    -0.553836   
N20      N      0.082433333333     0.211700000000     0.071400000000    -0.0954     
N20      N      0.082433333333     0.211700000000     0.571400000000    -0.0954     
N20      N      0.082433333333     0.711700000000     0.071400000000    -0.0954     
N20      N      0.082433333333     0.711700000000     0.571400000000    -0.0954     
N20      N      0.415766666667     0.211700000000     0.071400000000    -0.0954     
N20      N      0.415766666667     0.211700000000     0.571400000000    -0.0954     
N20      N      0.415766666667     0.711700000000     0.071400000000    -0.0954     
N20      N      0.415766666667     0.711700000000     0.571400000000    -0.0954     
N20      N      0.749100000000     0.211700000000     0.071400000000    -0.0954     
N20      N      0.749100000000     0.211700000000     0.571400000000    -0.0954     
N20      N      0.749100000000     0.711700000000     0.071400000000    -0.0954     
N20      N      0.749100000000     0.711700000000     0.571400000000    -0.0954     
O1       O      0.216233333333     0.391000000000     0.320300000000    -0.110698   
O1       O      0.216233333333     0.391000000000     0.820300000000    -0.110698   
O1       O      0.216233333333     0.891000000000     0.320300000000    -0.110698   
O1       O      0.216233333333     0.891000000000     0.820300000000    -0.110698   
O1       O      0.549566666667     0.391000000000     0.320300000000    -0.110698   
O1       O      0.549566666667     0.391000000000     0.820300000000    -0.110698   
O1       O      0.549566666667     0.891000000000     0.320300000000    -0.110698   
O1       O      0.549566666667     0.891000000000     0.820300000000    -0.110698   
O1       O      0.882900000000     0.391000000000     0.320300000000    -0.110698   
O1       O      0.882900000000     0.391000000000     0.820300000000    -0.110698   
O1       O      0.882900000000     0.891000000000     0.320300000000    -0.110698   
O1       O      0.882900000000     0.891000000000     0.820300000000    -0.110698   
O2       O      0.199166666667     0.432400000000     0.377700000000     0.085066   
O2       O      0.199166666667     0.432400000000     0.877700000000     0.085066   
O2       O      0.199166666667     0.932400000000     0.377700000000     0.085066   
O2       O      0.199166666667     0.932400000000     0.877700000000     0.085066   
O2       O      0.532500000000     0.432400000000     0.377700000000     0.085066   
O2       O      0.532500000000     0.432400000000     0.877700000000     0.085066   
O2       O      0.532500000000     0.932400000000     0.377700000000     0.085066   
O2       O      0.532500000000     0.932400000000     0.877700000000     0.085066   
O2       O      0.865833333333     0.432400000000     0.377700000000     0.085066   
O2       O      0.865833333333     0.432400000000     0.877700000000     0.085066   
O2       O      0.865833333333     0.932400000000     0.377700000000     0.085066   
O2       O      0.865833333333     0.932400000000     0.877700000000     0.085066   
O3       O      0.217500000000     0.317600000000     0.127700000000     0.176694   
O3       O      0.217500000000     0.317600000000     0.627700000000     0.176694   
O3       O      0.217500000000     0.817600000000     0.127700000000     0.176694   
O3       O      0.217500000000     0.817600000000     0.627700000000     0.176694   
O3       O      0.550833333333     0.317600000000     0.127700000000     0.176694   
O3       O      0.550833333333     0.317600000000     0.627700000000     0.176694   
O3       O      0.550833333333     0.817600000000     0.127700000000     0.176694   
O3       O      0.550833333333     0.817600000000     0.627700000000     0.176694   
O3       O      0.884166666667     0.317600000000     0.127700000000     0.176694   
O3       O      0.884166666667     0.317600000000     0.627700000000     0.176694   
O3       O      0.884166666667     0.817600000000     0.127700000000     0.176694   
O3       O      0.884166666667     0.817600000000     0.627700000000     0.176694   
O4       O      0.117100000000     0.320300000000     0.391000000000    -0.191842   
O4       O      0.117100000000     0.320300000000     0.891000000000    -0.191842   
O4       O      0.117100000000     0.820300000000     0.391000000000    -0.191842   
O4       O      0.117100000000     0.820300000000     0.891000000000    -0.191842   
O4       O      0.450433333333     0.320300000000     0.391000000000    -0.191842   
O4       O      0.450433333333     0.320300000000     0.891000000000    -0.191842   
O4       O      0.450433333333     0.820300000000     0.391000000000    -0.191842   
O4       O      0.450433333333     0.820300000000     0.891000000000    -0.191842   
O4       O      0.783766666667     0.320300000000     0.391000000000    -0.191842   
O4       O      0.783766666667     0.320300000000     0.891000000000    -0.191842   
O4       O      0.783766666667     0.820300000000     0.391000000000    -0.191842   
O4       O      0.783766666667     0.820300000000     0.891000000000    -0.191842   
O5       O      0.032500000000     0.067600000000     0.122300000000    -0.095719   
O5       O      0.032500000000     0.067600000000     0.622300000000    -0.095719   
O5       O      0.032500000000     0.567600000000     0.122300000000    -0.095719   
O5       O      0.032500000000     0.567600000000     0.622300000000    -0.095719   
O5       O      0.365833333333     0.067600000000     0.122300000000    -0.095719   
O5       O      0.365833333333     0.067600000000     0.622300000000    -0.095719   
O5       O      0.365833333333     0.567600000000     0.122300000000    -0.095719   
O5       O      0.365833333333     0.567600000000     0.622300000000    -0.095719   
O5       O      0.699166666667     0.067600000000     0.122300000000    -0.095719   
O5       O      0.699166666667     0.067600000000     0.622300000000    -0.095719   
O5       O      0.699166666667     0.567600000000     0.122300000000    -0.095719   
O5       O      0.699166666667     0.567600000000     0.622300000000    -0.095719   
O6       O      0.049566666667     0.109000000000     0.179700000000    -0.021528   
O6       O      0.049566666667     0.109000000000     0.679700000000    -0.021528   
O6       O      0.049566666667     0.609000000000     0.179700000000    -0.021528   
O6       O      0.049566666667     0.609000000000     0.679700000000    -0.021528   
O6       O      0.382900000000     0.109000000000     0.179700000000    -0.021528   
O6       O      0.382900000000     0.109000000000     0.679700000000    -0.021528   
O6       O      0.382900000000     0.609000000000     0.179700000000    -0.021528   
O6       O      0.382900000000     0.609000000000     0.679700000000    -0.021528   
O6       O      0.716233333333     0.109000000000     0.179700000000    -0.021528   
O6       O      0.716233333333     0.109000000000     0.679700000000    -0.021528   
O6       O      0.716233333333     0.609000000000     0.179700000000    -0.021528   
O6       O      0.716233333333     0.609000000000     0.679700000000    -0.021528   
O7       O      0.283766666667     0.179700000000     0.109000000000    -0.0954     
O7       O      0.283766666667     0.179700000000     0.609000000000    -0.0954     
O7       O      0.283766666667     0.679700000000     0.109000000000    -0.0954     
O7       O      0.283766666667     0.679700000000     0.609000000000    -0.0954     
O7       O      0.617100000000     0.179700000000     0.109000000000    -0.0954     
O7       O      0.617100000000     0.179700000000     0.609000000000    -0.0954     
O7       O      0.617100000000     0.679700000000     0.109000000000    -0.0954     
O7       O      0.617100000000     0.679700000000     0.609000000000    -0.0954     
O7       O      0.950433333333     0.179700000000     0.109000000000    -0.0954     
O7       O      0.950433333333     0.179700000000     0.609000000000    -0.0954     
O7       O      0.950433333333     0.679700000000     0.109000000000    -0.0954     
O7       O      0.950433333333     0.679700000000     0.609000000000    -0.0954     
O8       O      0.200433333333     0.359000000000     0.070300000000    -0.193003   
O8       O      0.200433333333     0.359000000000     0.570300000000    -0.193003   
O8       O      0.200433333333     0.859000000000     0.070300000000    -0.193003   
O8       O      0.200433333333     0.859000000000     0.570300000000    -0.193003   
O8       O      0.533766666667     0.359000000000     0.070300000000    -0.193003   
O8       O      0.533766666667     0.359000000000     0.570300000000    -0.193003   
O8       O      0.533766666667     0.859000000000     0.070300000000    -0.193003   
O8       O      0.533766666667     0.859000000000     0.570300000000    -0.193003   
O8       O      0.867100000000     0.359000000000     0.070300000000    -0.193003   
O8       O      0.867100000000     0.359000000000     0.570300000000    -0.193003   
O8       O      0.867100000000     0.859000000000     0.070300000000    -0.193003   
O8       O      0.867100000000     0.859000000000     0.570300000000    -0.193003   
O9       O      0.115833333333     0.127700000000     0.317600000000     0.550788   
O9       O      0.115833333333     0.127700000000     0.817600000000     0.550788   
O9       O      0.115833333333     0.627700000000     0.317600000000     0.550788   
O9       O      0.115833333333     0.627700000000     0.817600000000     0.550788   
O9       O      0.449166666667     0.127700000000     0.317600000000     0.550788   
O9       O      0.449166666667     0.127700000000     0.817600000000     0.550788   
O9       O      0.449166666667     0.627700000000     0.317600000000     0.550788   
O9       O      0.449166666667     0.627700000000     0.817600000000     0.550788   
O9       O      0.782500000000     0.127700000000     0.317600000000     0.550788   
O9       O      0.782500000000     0.127700000000     0.817600000000     0.550788   
O9       O      0.782500000000     0.627700000000     0.317600000000     0.550788   
O9       O      0.782500000000     0.627700000000     0.817600000000     0.550788   
O10      O      0.132900000000     0.070300000000     0.359000000000     0.074845   
O10      O      0.132900000000     0.070300000000     0.859000000000     0.074845   
O10      O      0.132900000000     0.570300000000     0.359000000000     0.074845   
O10      O      0.132900000000     0.570300000000     0.859000000000     0.074845   
O10      O      0.466233333333     0.070300000000     0.359000000000     0.074845   
O10      O      0.466233333333     0.070300000000     0.859000000000     0.074845   
O10      O      0.466233333333     0.570300000000     0.359000000000     0.074845   
O10      O      0.466233333333     0.570300000000     0.859000000000     0.074845   
O10      O      0.799566666667     0.070300000000     0.359000000000     0.074845   
O10      O      0.799566666667     0.070300000000     0.859000000000     0.074845   
O10      O      0.799566666667     0.570300000000     0.359000000000     0.074845   
O10      O      0.799566666667     0.570300000000     0.859000000000     0.074845   
O11      O      0.050833333333     0.182400000000     0.372300000000    -0.140297   
O11      O      0.050833333333     0.182400000000     0.872300000000    -0.140297   
O11      O      0.050833333333     0.682400000000     0.372300000000    -0.140297   
O11      O      0.050833333333     0.682400000000     0.872300000000    -0.140297   
O11      O      0.384166666667     0.182400000000     0.372300000000    -0.140297   
O11      O      0.384166666667     0.182400000000     0.872300000000    -0.140297   
O11      O      0.384166666667     0.682400000000     0.372300000000    -0.140297   
O11      O      0.384166666667     0.682400000000     0.872300000000    -0.140297   
O11      O      0.717500000000     0.182400000000     0.372300000000    -0.140297   
O11      O      0.717500000000     0.182400000000     0.872300000000    -0.140297   
O11      O      0.717500000000     0.682400000000     0.372300000000    -0.140297   
O11      O      0.717500000000     0.682400000000     0.872300000000    -0.140297   
O12      O      0.033766666667     0.141000000000     0.429700000000    -0.036786   
O12      O      0.033766666667     0.141000000000     0.929700000000    -0.036786   
O12      O      0.033766666667     0.641000000000     0.429700000000    -0.036786   
O12      O      0.033766666667     0.641000000000     0.929700000000    -0.036786   
O12      O      0.367100000000     0.141000000000     0.429700000000    -0.036786   
O12      O      0.367100000000     0.141000000000     0.929700000000    -0.036786   
O12      O      0.367100000000     0.641000000000     0.429700000000    -0.036786   
O12      O      0.367100000000     0.641000000000     0.929700000000    -0.036786   
O12      O      0.700433333333     0.141000000000     0.429700000000    -0.036786   
O12      O      0.700433333333     0.141000000000     0.929700000000    -0.036786   
O12      O      0.700433333333     0.641000000000     0.429700000000    -0.036786   
O12      O      0.700433333333     0.641000000000     0.929700000000    -0.036786   
O13      O      0.282500000000     0.372300000000     0.182400000000    -0.110678   
O13      O      0.282500000000     0.372300000000     0.682400000000    -0.110678   
O13      O      0.282500000000     0.872300000000     0.182400000000    -0.110678   
O13      O      0.282500000000     0.872300000000     0.682400000000    -0.110678   
O13      O      0.615833333333     0.372300000000     0.182400000000    -0.110678   
O13      O      0.615833333333     0.372300000000     0.682400000000    -0.110678   
O13      O      0.615833333333     0.872300000000     0.182400000000    -0.110678   
O13      O      0.615833333333     0.872300000000     0.682400000000    -0.110678   
O13      O      0.949166666667     0.372300000000     0.182400000000    -0.110678   
O13      O      0.949166666667     0.372300000000     0.682400000000    -0.110678   
O13      O      0.949166666667     0.872300000000     0.182400000000    -0.110678   
O13      O      0.949166666667     0.872300000000     0.682400000000    -0.110678   
O14      O      0.299566666667     0.429700000000     0.141000000000     0.085066   
O14      O      0.299566666667     0.429700000000     0.641000000000     0.085066   
O14      O      0.299566666667     0.929700000000     0.141000000000     0.085066   
O14      O      0.299566666667     0.929700000000     0.641000000000     0.085066   
O14      O      0.632900000000     0.429700000000     0.141000000000     0.085066   
O14      O      0.632900000000     0.429700000000     0.641000000000     0.085066   
O14      O      0.632900000000     0.929700000000     0.141000000000     0.085066   
O14      O      0.632900000000     0.929700000000     0.641000000000     0.085066   
O14      O      0.966233333333     0.429700000000     0.141000000000     0.085066   
O14      O      0.966233333333     0.429700000000     0.641000000000     0.085066   
O14      O      0.966233333333     0.929700000000     0.141000000000     0.085066   
O14      O      0.966233333333     0.929700000000     0.641000000000     0.085066   
O15      O      0.134166666667     0.377700000000     0.432400000000     0.176694   
O15      O      0.134166666667     0.377700000000     0.932400000000     0.176694   
O15      O      0.134166666667     0.877700000000     0.432400000000     0.176694   
O15      O      0.134166666667     0.877700000000     0.932400000000     0.176694   
O15      O      0.467500000000     0.377700000000     0.432400000000     0.176694   
O15      O      0.467500000000     0.377700000000     0.932400000000     0.176694   
O15      O      0.467500000000     0.877700000000     0.432400000000     0.176694   
O15      O      0.467500000000     0.877700000000     0.932400000000     0.176694   
O15      O      0.800833333333     0.377700000000     0.432400000000     0.176694   
O15      O      0.800833333333     0.377700000000     0.932400000000     0.176694   
O15      O      0.800833333333     0.877700000000     0.432400000000     0.176694   
O15      O      0.800833333333     0.877700000000     0.932400000000     0.176694   
O16      O      0.300833333333     0.122300000000     0.067600000000    -0.191842   
O16      O      0.300833333333     0.122300000000     0.567600000000    -0.191842   
O16      O      0.300833333333     0.622300000000     0.067600000000    -0.191842   
O16      O      0.300833333333     0.622300000000     0.567600000000    -0.191842   
O16      O      0.634166666667     0.122300000000     0.067600000000    -0.191842   
O16      O      0.634166666667     0.122300000000     0.567600000000    -0.191842   
O16      O      0.634166666667     0.622300000000     0.067600000000    -0.191842   
O16      O      0.634166666667     0.622300000000     0.567600000000    -0.191842   
O16      O      0.967500000000     0.122300000000     0.067600000000    -0.191842   
O16      O      0.967500000000     0.122300000000     0.567600000000    -0.191842   
O16      O      0.967500000000     0.622300000000     0.067600000000    -0.191842   
O16      O      0.967500000000     0.622300000000     0.567600000000    -0.191842   


