data_ZIKJIO_clean_DDEC

_audit_creation_method RASPA-1.0
_audit_creation_date 2025-9-8
_audit_author_name ''

_cell_length_a    11.4269
_cell_length_b    11.4269
_cell_length_c    18.8731
_cell_angle_alpha 94.7584
_cell_angle_beta  94.7584
_cell_angle_gamma 96.7219
_cell_volume      43708.5

_symmetry_cell_setting          triclinic
_symmetry_space_group_name_Hall 'P 1'
_symmetry_space_group_name_H-M  'P 1'
_symmetry_Int_Tables_number     1

_symmetry_equiv_pos_as_xyz 'x,y,z'

loop_
_atom_site_label
_atom_site_type_symbol
_atom_site_fract_x
_atom_site_fract_y
_atom_site_fract_z
_atom_site_charge
C1       C      0.274643333333     0.229550000000     0.458235000000    -0.166807   
C1       C      0.274643333333     0.229550000000     0.958235000000    -0.166807   
C1       C      0.274643333333     0.562883333333     0.458235000000    -0.166807   
C1       C      0.274643333333     0.562883333333     0.958235000000    -0.166807   
C1       C      0.274643333333     0.896216666667     0.458235000000    -0.166807   
C1       C      0.274643333333     0.896216666667     0.958235000000    -0.166807   
C1       C      0.607976666667     0.229550000000     0.458235000000    -0.166807   
C1       C      0.607976666667     0.229550000000     0.958235000000    -0.166807   
C1       C      0.607976666667     0.562883333333     0.458235000000    -0.166807   
C1       C      0.607976666667     0.562883333333     0.958235000000    -0.166807   
C1       C      0.607976666667     0.896216666667     0.458235000000    -0.166807   
C1       C      0.607976666667     0.896216666667     0.958235000000    -0.166807   
C1       C      0.941310000000     0.229550000000     0.458235000000    -0.166807   
C1       C      0.941310000000     0.229550000000     0.958235000000    -0.166807   
C1       C      0.941310000000     0.562883333333     0.458235000000    -0.166807   
C1       C      0.941310000000     0.562883333333     0.958235000000    -0.166807   
C1       C      0.941310000000     0.896216666667     0.458235000000    -0.166807   
C1       C      0.941310000000     0.896216666667     0.958235000000    -0.166807   
C2       C      0.066460000000     0.269773333333     0.157100000000    -0.088208   
C2       C      0.066460000000     0.269773333333     0.657100000000    -0.088208   
C2       C      0.066460000000     0.603106666667     0.157100000000    -0.088208   
C2       C      0.066460000000     0.603106666667     0.657100000000    -0.088208   
C2       C      0.066460000000     0.936440000000     0.157100000000    -0.088208   
C2       C      0.066460000000     0.936440000000     0.657100000000    -0.088208   
C2       C      0.399793333333     0.269773333333     0.157100000000    -0.088208   
C2       C      0.399793333333     0.269773333333     0.657100000000    -0.088208   
C2       C      0.399793333333     0.603106666667     0.157100000000    -0.088208   
C2       C      0.399793333333     0.603106666667     0.657100000000    -0.088208   
C2       C      0.399793333333     0.936440000000     0.157100000000    -0.088208   
C2       C      0.399793333333     0.936440000000     0.657100000000    -0.088208   
C2       C      0.733126666667     0.269773333333     0.157100000000    -0.088208   
C2       C      0.733126666667     0.269773333333     0.657100000000    -0.088208   
C2       C      0.733126666667     0.603106666667     0.157100000000    -0.088208   
C2       C      0.733126666667     0.603106666667     0.657100000000    -0.088208   
C2       C      0.733126666667     0.936440000000     0.157100000000    -0.088208   
C2       C      0.733126666667     0.936440000000     0.657100000000    -0.088208   
C3       C      0.312113333333     0.026100000000     0.441615000000     0.6066     
C3       C      0.312113333333     0.026100000000     0.941615000000     0.6066     
C3       C      0.312113333333     0.359433333333     0.441615000000     0.6066     
C3       C      0.312113333333     0.359433333333     0.941615000000     0.6066     
C3       C      0.312113333333     0.692766666667     0.441615000000     0.6066     
C3       C      0.312113333333     0.692766666667     0.941615000000     0.6066     
C3       C      0.645446666667     0.026100000000     0.441615000000     0.6066     
C3       C      0.645446666667     0.026100000000     0.941615000000     0.6066     
C3       C      0.645446666667     0.359433333333     0.441615000000     0.6066     
C3       C      0.645446666667     0.359433333333     0.941615000000     0.6066     
C3       C      0.645446666667     0.692766666667     0.441615000000     0.6066     
C3       C      0.645446666667     0.692766666667     0.941615000000     0.6066     
C3       C      0.978780000000     0.026100000000     0.441615000000     0.6066     
C3       C      0.978780000000     0.026100000000     0.941615000000     0.6066     
C3       C      0.978780000000     0.359433333333     0.441615000000     0.6066     
C3       C      0.978780000000     0.359433333333     0.941615000000     0.6066     
C3       C      0.978780000000     0.692766666667     0.441615000000     0.6066     
C3       C      0.978780000000     0.692766666667     0.941615000000     0.6066     
C4       C      0.291846666667     0.206806666667     0.433070000000    -0.23172    
C4       C      0.291846666667     0.206806666667     0.933070000000    -0.23172    
C4       C      0.291846666667     0.540140000000     0.433070000000    -0.23172    
C4       C      0.291846666667     0.540140000000     0.933070000000    -0.23172    
C4       C      0.291846666667     0.873473333333     0.433070000000    -0.23172    
C4       C      0.291846666667     0.873473333333     0.933070000000    -0.23172    
C4       C      0.625180000000     0.206806666667     0.433070000000    -0.23172    
C4       C      0.625180000000     0.206806666667     0.933070000000    -0.23172    
C4       C      0.625180000000     0.540140000000     0.433070000000    -0.23172    
C4       C      0.625180000000     0.540140000000     0.933070000000    -0.23172    
C4       C      0.625180000000     0.873473333333     0.433070000000    -0.23172    
C4       C      0.625180000000     0.873473333333     0.933070000000    -0.23172    
C4       C      0.958513333333     0.206806666667     0.433070000000    -0.23172    
C4       C      0.958513333333     0.206806666667     0.933070000000    -0.23172    
C4       C      0.958513333333     0.540140000000     0.433070000000    -0.23172    
C4       C      0.958513333333     0.540140000000     0.933070000000    -0.23172    
C4       C      0.958513333333     0.873473333333     0.433070000000    -0.23172    
C4       C      0.958513333333     0.873473333333     0.933070000000    -0.23172    
C5       C      0.211316666667     0.120636666667     0.407155000000     0.598072   
C5       C      0.211316666667     0.120636666667     0.907155000000     0.598072   
C5       C      0.211316666667     0.453970000000     0.407155000000     0.598072   
C5       C      0.211316666667     0.453970000000     0.907155000000     0.598072   
C5       C      0.211316666667     0.787303333333     0.407155000000     0.598072   
C5       C      0.211316666667     0.787303333333     0.907155000000     0.598072   
C5       C      0.544650000000     0.120636666667     0.407155000000     0.598072   
C5       C      0.544650000000     0.120636666667     0.907155000000     0.598072   
C5       C      0.544650000000     0.453970000000     0.407155000000     0.598072   
C5       C      0.544650000000     0.453970000000     0.907155000000     0.598072   
C5       C      0.544650000000     0.787303333333     0.407155000000     0.598072   
C5       C      0.544650000000     0.787303333333     0.907155000000     0.598072   
C5       C      0.877983333333     0.120636666667     0.407155000000     0.598072   
C5       C      0.877983333333     0.120636666667     0.907155000000     0.598072   
C5       C      0.877983333333     0.453970000000     0.407155000000     0.598072   
C5       C      0.877983333333     0.453970000000     0.907155000000     0.598072   
C5       C      0.877983333333     0.787303333333     0.407155000000     0.598072   
C5       C      0.877983333333     0.787303333333     0.907155000000     0.598072   
C6       C      0.271470000000     0.171796666667     0.416520000000     0.598074   
C6       C      0.271470000000     0.171796666667     0.916520000000     0.598074   
C6       C      0.271470000000     0.505130000000     0.416520000000     0.598074   
C6       C      0.271470000000     0.505130000000     0.916520000000     0.598074   
C6       C      0.271470000000     0.838463333333     0.416520000000     0.598074   
C6       C      0.271470000000     0.838463333333     0.916520000000     0.598074   
C6       C      0.604803333333     0.171796666667     0.416520000000     0.598074   
C6       C      0.604803333333     0.171796666667     0.916520000000     0.598074   
C6       C      0.604803333333     0.505130000000     0.416520000000     0.598074   
C6       C      0.604803333333     0.505130000000     0.916520000000     0.598074   
C6       C      0.604803333333     0.838463333333     0.416520000000     0.598074   
C6       C      0.604803333333     0.838463333333     0.916520000000     0.598074   
C6       C      0.938136666667     0.171796666667     0.416520000000     0.598074   
C6       C      0.938136666667     0.171796666667     0.916520000000     0.598074   
C6       C      0.938136666667     0.505130000000     0.416520000000     0.598074   
C6       C      0.938136666667     0.505130000000     0.916520000000     0.598074   
C6       C      0.938136666667     0.838463333333     0.416520000000     0.598074   
C6       C      0.938136666667     0.838463333333     0.916520000000     0.598074   
C7       C      0.216986666667     0.180886666667     0.450730000000     0.120117   
C7       C      0.216986666667     0.180886666667     0.950730000000     0.120117   
C7       C      0.216986666667     0.514220000000     0.450730000000     0.120117   
C7       C      0.216986666667     0.514220000000     0.950730000000     0.120117   
C7       C      0.216986666667     0.847553333333     0.450730000000     0.120117   
C7       C      0.216986666667     0.847553333333     0.950730000000     0.120117   
C7       C      0.550320000000     0.180886666667     0.450730000000     0.120117   
C7       C      0.550320000000     0.180886666667     0.950730000000     0.120117   
C7       C      0.550320000000     0.514220000000     0.450730000000     0.120117   
C7       C      0.550320000000     0.514220000000     0.950730000000     0.120117   
C7       C      0.550320000000     0.847553333333     0.450730000000     0.120117   
C7       C      0.550320000000     0.847553333333     0.950730000000     0.120117   
C7       C      0.883653333333     0.180886666667     0.450730000000     0.120117   
C7       C      0.883653333333     0.180886666667     0.950730000000     0.120117   
C7       C      0.883653333333     0.514220000000     0.450730000000     0.120117   
C7       C      0.883653333333     0.514220000000     0.950730000000     0.120117   
C7       C      0.883653333333     0.847553333333     0.450730000000     0.120117   
C7       C      0.883653333333     0.847553333333     0.950730000000     0.120117   
C8       C      0.237160000000     0.216320000000     0.467240000000    -0.025824   
C8       C      0.237160000000     0.216320000000     0.967240000000    -0.025824   
C8       C      0.237160000000     0.549653333333     0.467240000000    -0.025824   
C8       C      0.237160000000     0.549653333333     0.967240000000    -0.025824   
C8       C      0.237160000000     0.882986666667     0.467240000000    -0.025824   
C8       C      0.237160000000     0.882986666667     0.967240000000    -0.025824   
C8       C      0.570493333333     0.216320000000     0.467240000000    -0.025824   
C8       C      0.570493333333     0.216320000000     0.967240000000    -0.025824   
C8       C      0.570493333333     0.549653333333     0.467240000000    -0.025824   
C8       C      0.570493333333     0.549653333333     0.967240000000    -0.025824   
C8       C      0.570493333333     0.882986666667     0.467240000000    -0.025824   
C8       C      0.570493333333     0.882986666667     0.967240000000    -0.025824   
C8       C      0.903826666667     0.216320000000     0.467240000000    -0.025824   
C8       C      0.903826666667     0.216320000000     0.967240000000    -0.025824   
C8       C      0.903826666667     0.549653333333     0.467240000000    -0.025824   
C8       C      0.903826666667     0.549653333333     0.967240000000    -0.025824   
C8       C      0.903826666667     0.882986666667     0.467240000000    -0.025824   
C8       C      0.903826666667     0.882986666667     0.967240000000    -0.025824   
C9       C      0.234070000000     0.158703333333     0.425045000000    -0.1739     
C9       C      0.234070000000     0.158703333333     0.925045000000    -0.1739     
C9       C      0.234070000000     0.492036666667     0.425045000000    -0.1739     
C9       C      0.234070000000     0.492036666667     0.925045000000    -0.1739     
C9       C      0.234070000000     0.825370000000     0.425045000000    -0.1739     
C9       C      0.234070000000     0.825370000000     0.925045000000    -0.1739     
C9       C      0.567403333333     0.158703333333     0.425045000000    -0.1739     
C9       C      0.567403333333     0.158703333333     0.925045000000    -0.1739     
C9       C      0.567403333333     0.492036666667     0.425045000000    -0.1739     
C9       C      0.567403333333     0.492036666667     0.925045000000    -0.1739     
C9       C      0.567403333333     0.825370000000     0.425045000000    -0.1739     
C9       C      0.567403333333     0.825370000000     0.925045000000    -0.1739     
C9       C      0.900736666667     0.158703333333     0.425045000000    -0.1739     
C9       C      0.900736666667     0.158703333333     0.925045000000    -0.1739     
C9       C      0.900736666667     0.492036666667     0.425045000000    -0.1739     
C9       C      0.900736666667     0.492036666667     0.925045000000    -0.1739     
C9       C      0.900736666667     0.825370000000     0.425045000000    -0.1739     
C9       C      0.900736666667     0.825370000000     0.925045000000    -0.1739     
C10      C      0.266873333333     0.063560000000     0.342900000000     0.189492   
C10      C      0.266873333333     0.063560000000     0.842900000000     0.189492   
C10      C      0.266873333333     0.396893333333     0.342900000000     0.189492   
C10      C      0.266873333333     0.396893333333     0.842900000000     0.189492   
C10      C      0.266873333333     0.730226666667     0.342900000000     0.189492   
C10      C      0.266873333333     0.730226666667     0.842900000000     0.189492   
C10      C      0.600206666667     0.063560000000     0.342900000000     0.189492   
C10      C      0.600206666667     0.063560000000     0.842900000000     0.189492   
C10      C      0.600206666667     0.396893333333     0.342900000000     0.189492   
C10      C      0.600206666667     0.396893333333     0.842900000000     0.189492   
C10      C      0.600206666667     0.730226666667     0.342900000000     0.189492   
C10      C      0.600206666667     0.730226666667     0.842900000000     0.189492   
C10      C      0.933540000000     0.063560000000     0.342900000000     0.189492   
C10      C      0.933540000000     0.063560000000     0.842900000000     0.189492   
C10      C      0.933540000000     0.396893333333     0.342900000000     0.189492   
C10      C      0.933540000000     0.396893333333     0.842900000000     0.189492   
C10      C      0.933540000000     0.730226666667     0.342900000000     0.189492   
C10      C      0.933540000000     0.730226666667     0.842900000000     0.189492   
C11      C      0.039503333333     0.296843333333     0.157000000000    -0.173807   
C11      C      0.039503333333     0.296843333333     0.657000000000    -0.173807   
C11      C      0.039503333333     0.630176666667     0.157000000000    -0.173807   
C11      C      0.039503333333     0.630176666667     0.657000000000    -0.173807   
C11      C      0.039503333333     0.963510000000     0.157000000000    -0.173807   
C11      C      0.039503333333     0.963510000000     0.657000000000    -0.173807   
C11      C      0.372836666667     0.296843333333     0.157000000000    -0.173807   
C11      C      0.372836666667     0.296843333333     0.657000000000    -0.173807   
C11      C      0.372836666667     0.630176666667     0.157000000000    -0.173807   
C11      C      0.372836666667     0.630176666667     0.657000000000    -0.173807   
C11      C      0.372836666667     0.963510000000     0.157000000000    -0.173807   
C11      C      0.372836666667     0.963510000000     0.657000000000    -0.173807   
C11      C      0.706170000000     0.296843333333     0.157000000000    -0.173807   
C11      C      0.706170000000     0.296843333333     0.657000000000    -0.173807   
C11      C      0.706170000000     0.630176666667     0.157000000000    -0.173807   
C11      C      0.706170000000     0.630176666667     0.657000000000    -0.173807   
C11      C      0.706170000000     0.963510000000     0.157000000000    -0.173807   
C11      C      0.706170000000     0.963510000000     0.657000000000    -0.173807   
C12      C      0.293830000000     0.036490000000     0.343000000000     0.189511   
C12      C      0.293830000000     0.036490000000     0.843000000000     0.189511   
C12      C      0.293830000000     0.369823333333     0.343000000000     0.189511   
C12      C      0.293830000000     0.369823333333     0.843000000000     0.189511   
C12      C      0.293830000000     0.703156666667     0.343000000000     0.189511   
C12      C      0.293830000000     0.703156666667     0.843000000000     0.189511   
C12      C      0.627163333333     0.036490000000     0.343000000000     0.189511   
C12      C      0.627163333333     0.036490000000     0.843000000000     0.189511   
C12      C      0.627163333333     0.369823333333     0.343000000000     0.189511   
C12      C      0.627163333333     0.369823333333     0.843000000000     0.189511   
C12      C      0.627163333333     0.703156666667     0.343000000000     0.189511   
C12      C      0.627163333333     0.703156666667     0.843000000000     0.189511   
C12      C      0.960496666667     0.036490000000     0.343000000000     0.189511   
C12      C      0.960496666667     0.036490000000     0.843000000000     0.189511   
C12      C      0.960496666667     0.369823333333     0.343000000000     0.189511   
C12      C      0.960496666667     0.369823333333     0.843000000000     0.189511   
C12      C      0.960496666667     0.703156666667     0.343000000000     0.189511   
C12      C      0.960496666667     0.703156666667     0.843000000000     0.189511   
C13      C      0.174630000000     0.099263333333     0.324955000000     0.607378   
C13      C      0.174630000000     0.099263333333     0.824955000000     0.607378   
C13      C      0.174630000000     0.432596666667     0.324955000000     0.607378   
C13      C      0.174630000000     0.432596666667     0.824955000000     0.607378   
C13      C      0.174630000000     0.765930000000     0.324955000000     0.607378   
C13      C      0.174630000000     0.765930000000     0.824955000000     0.607378   
C13      C      0.507963333333     0.099263333333     0.324955000000     0.607378   
C13      C      0.507963333333     0.099263333333     0.824955000000     0.607378   
C13      C      0.507963333333     0.432596666667     0.324955000000     0.607378   
C13      C      0.507963333333     0.432596666667     0.824955000000     0.607378   
C13      C      0.507963333333     0.765930000000     0.324955000000     0.607378   
C13      C      0.507963333333     0.765930000000     0.824955000000     0.607378   
C13      C      0.841296666667     0.099263333333     0.324955000000     0.607378   
C13      C      0.841296666667     0.099263333333     0.824955000000     0.607378   
C13      C      0.841296666667     0.432596666667     0.324955000000     0.607378   
C13      C      0.841296666667     0.432596666667     0.824955000000     0.607378   
C13      C      0.841296666667     0.765930000000     0.324955000000     0.607378   
C13      C      0.841296666667     0.765930000000     0.824955000000     0.607378   
C14      C      0.103783333333     0.058690000000     0.291765000000    -0.087741   
C14      C      0.103783333333     0.058690000000     0.791765000000    -0.087741   
C14      C      0.103783333333     0.392023333333     0.291765000000    -0.087741   
C14      C      0.103783333333     0.392023333333     0.791765000000    -0.087741   
C14      C      0.103783333333     0.725356666667     0.291765000000    -0.087741   
C14      C      0.103783333333     0.725356666667     0.791765000000    -0.087741   
C14      C      0.437116666667     0.058690000000     0.291765000000    -0.087741   
C14      C      0.437116666667     0.058690000000     0.791765000000    -0.087741   
C14      C      0.437116666667     0.392023333333     0.291765000000    -0.087741   
C14      C      0.437116666667     0.392023333333     0.791765000000    -0.087741   
C14      C      0.437116666667     0.725356666667     0.291765000000    -0.087741   
C14      C      0.437116666667     0.725356666667     0.791765000000    -0.087741   
C14      C      0.770450000000     0.058690000000     0.291765000000    -0.087741   
C14      C      0.770450000000     0.058690000000     0.791765000000    -0.087741   
C14      C      0.770450000000     0.392023333333     0.291765000000    -0.087741   
C14      C      0.770450000000     0.392023333333     0.791765000000    -0.087741   
C14      C      0.770450000000     0.725356666667     0.291765000000    -0.087741   
C14      C      0.770450000000     0.725356666667     0.791765000000    -0.087741   
C15      C      0.117013333333     0.096173333333     0.282760000000    -0.16673    
C15      C      0.117013333333     0.096173333333     0.782760000000    -0.16673    
C15      C      0.117013333333     0.429506666667     0.282760000000    -0.16673    
C15      C      0.117013333333     0.429506666667     0.782760000000    -0.16673    
C15      C      0.117013333333     0.762840000000     0.282760000000    -0.16673    
C15      C      0.117013333333     0.762840000000     0.782760000000    -0.16673    
C15      C      0.450346666667     0.096173333333     0.282760000000    -0.16673    
C15      C      0.450346666667     0.096173333333     0.782760000000    -0.16673    
C15      C      0.450346666667     0.429506666667     0.282760000000    -0.16673    
C15      C      0.450346666667     0.429506666667     0.782760000000    -0.16673    
C15      C      0.450346666667     0.762840000000     0.282760000000    -0.16673    
C15      C      0.450346666667     0.762840000000     0.782760000000    -0.16673    
C15      C      0.783680000000     0.096173333333     0.282760000000    -0.16673    
C15      C      0.783680000000     0.096173333333     0.782760000000    -0.16673    
C15      C      0.783680000000     0.429506666667     0.282760000000    -0.16673    
C15      C      0.783680000000     0.429506666667     0.782760000000    -0.16673    
C15      C      0.783680000000     0.762840000000     0.282760000000    -0.16673    
C15      C      0.783680000000     0.762840000000     0.782760000000    -0.16673    
C16      C      0.152446666667     0.116346666667     0.299270000000    -0.163058   
C16      C      0.152446666667     0.116346666667     0.799270000000    -0.163058   
C16      C      0.152446666667     0.449680000000     0.299270000000    -0.163058   
C16      C      0.152446666667     0.449680000000     0.799270000000    -0.163058   
C16      C      0.152446666667     0.783013333333     0.299270000000    -0.163058   
C16      C      0.152446666667     0.783013333333     0.799270000000    -0.163058   
C16      C      0.485780000000     0.116346666667     0.299270000000    -0.163058   
C16      C      0.485780000000     0.116346666667     0.799270000000    -0.163058   
C16      C      0.485780000000     0.449680000000     0.299270000000    -0.163058   
C16      C      0.485780000000     0.449680000000     0.799270000000    -0.163058   
C16      C      0.485780000000     0.783013333333     0.299270000000    -0.163058   
C16      C      0.485780000000     0.783013333333     0.799270000000    -0.163058   
C16      C      0.819113333333     0.116346666667     0.299270000000    -0.163058   
C16      C      0.819113333333     0.116346666667     0.799270000000    -0.163058   
C16      C      0.819113333333     0.449680000000     0.299270000000    -0.163058   
C16      C      0.819113333333     0.449680000000     0.799270000000    -0.163058   
C16      C      0.819113333333     0.783013333333     0.299270000000    -0.163058   
C16      C      0.819113333333     0.783013333333     0.799270000000    -0.163058   
C17      C      0.161536666667     0.061863333333     0.333480000000    -0.173959   
C17      C      0.161536666667     0.061863333333     0.833480000000    -0.173959   
C17      C      0.161536666667     0.395196666667     0.333480000000    -0.173959   
C17      C      0.161536666667     0.395196666667     0.833480000000    -0.173959   
C17      C      0.161536666667     0.728530000000     0.333480000000    -0.173959   
C17      C      0.161536666667     0.728530000000     0.833480000000    -0.173959   
C17      C      0.494870000000     0.061863333333     0.333480000000    -0.173959   
C17      C      0.494870000000     0.061863333333     0.833480000000    -0.173959   
C17      C      0.494870000000     0.395196666667     0.333480000000    -0.173959   
C17      C      0.494870000000     0.395196666667     0.833480000000    -0.173959   
C17      C      0.494870000000     0.728530000000     0.333480000000    -0.173959   
C17      C      0.494870000000     0.728530000000     0.833480000000    -0.173959   
C17      C      0.828203333333     0.061863333333     0.333480000000    -0.173959   
C17      C      0.828203333333     0.061863333333     0.833480000000    -0.173959   
C17      C      0.828203333333     0.395196666667     0.333480000000    -0.173959   
C17      C      0.828203333333     0.395196666667     0.833480000000    -0.173959   
C17      C      0.828203333333     0.728530000000     0.333480000000    -0.173959   
C17      C      0.828203333333     0.728530000000     0.833480000000    -0.173959   
C18      C      0.212696666667     0.122016666667     0.342845000000    -0.095282   
C18      C      0.212696666667     0.122016666667     0.842845000000    -0.095282   
C18      C      0.212696666667     0.455350000000     0.342845000000    -0.095282   
C18      C      0.212696666667     0.455350000000     0.842845000000    -0.095282   
C18      C      0.212696666667     0.788683333333     0.342845000000    -0.095282   
C18      C      0.212696666667     0.788683333333     0.842845000000    -0.095282   
C18      C      0.546030000000     0.122016666667     0.342845000000    -0.095282   
C18      C      0.546030000000     0.122016666667     0.842845000000    -0.095282   
C18      C      0.546030000000     0.455350000000     0.342845000000    -0.095282   
C18      C      0.546030000000     0.455350000000     0.842845000000    -0.095282   
C18      C      0.546030000000     0.788683333333     0.342845000000    -0.095282   
C18      C      0.546030000000     0.788683333333     0.842845000000    -0.095282   
C18      C      0.879363333333     0.122016666667     0.342845000000    -0.095282   
C18      C      0.879363333333     0.122016666667     0.842845000000    -0.095282   
C18      C      0.879363333333     0.455350000000     0.342845000000    -0.095282   
C18      C      0.879363333333     0.455350000000     0.842845000000    -0.095282   
C18      C      0.879363333333     0.788683333333     0.342845000000    -0.095282   
C18      C      0.879363333333     0.788683333333     0.842845000000    -0.095282   
C19      C      0.126526666667     0.041486666667     0.316930000000    -0.028962   
C19      C      0.126526666667     0.041486666667     0.816930000000    -0.028962   
C19      C      0.126526666667     0.374820000000     0.316930000000    -0.028962   
C19      C      0.126526666667     0.374820000000     0.816930000000    -0.028962   
C19      C      0.126526666667     0.708153333333     0.316930000000    -0.028962   
C19      C      0.126526666667     0.708153333333     0.816930000000    -0.028962   
C19      C      0.459860000000     0.041486666667     0.316930000000    -0.028962   
C19      C      0.459860000000     0.041486666667     0.816930000000    -0.028962   
C19      C      0.459860000000     0.374820000000     0.316930000000    -0.028962   
C19      C      0.459860000000     0.374820000000     0.816930000000    -0.028962   
C19      C      0.459860000000     0.708153333333     0.316930000000    -0.028962   
C19      C      0.459860000000     0.708153333333     0.816930000000    -0.028962   
C19      C      0.793193333333     0.041486666667     0.316930000000    -0.028962   
C19      C      0.793193333333     0.041486666667     0.816930000000    -0.028962   
C19      C      0.793193333333     0.374820000000     0.316930000000    -0.028962   
C19      C      0.793193333333     0.374820000000     0.816930000000    -0.028962   
C19      C      0.793193333333     0.708153333333     0.316930000000    -0.028962   
C19      C      0.793193333333     0.708153333333     0.816930000000    -0.028962   
C20      C      0.307233333333     0.021220000000     0.308385000000     0.11999    
C20      C      0.307233333333     0.021220000000     0.808385000000     0.11999    
C20      C      0.307233333333     0.354553333333     0.308385000000     0.11999    
C20      C      0.307233333333     0.354553333333     0.808385000000     0.11999    
C20      C      0.307233333333     0.687886666667     0.308385000000     0.11999    
C20      C      0.307233333333     0.687886666667     0.808385000000     0.11999    
C20      C      0.640566666667     0.021220000000     0.308385000000     0.11999    
C20      C      0.640566666667     0.021220000000     0.808385000000     0.11999    
C20      C      0.640566666667     0.354553333333     0.308385000000     0.11999    
C20      C      0.640566666667     0.354553333333     0.808385000000     0.11999    
C20      C      0.640566666667     0.687886666667     0.308385000000     0.11999    
C20      C      0.640566666667     0.687886666667     0.808385000000     0.11999    
C20      C      0.973900000000     0.021220000000     0.308385000000     0.11999    
C20      C      0.973900000000     0.021220000000     0.808385000000     0.11999    
C20      C      0.973900000000     0.354553333333     0.308385000000     0.11999    
C20      C      0.973900000000     0.354553333333     0.808385000000     0.11999    
C20      C      0.973900000000     0.687886666667     0.308385000000     0.11999    
C20      C      0.973900000000     0.687886666667     0.808385000000     0.11999    
C21      C      0.269773333333     0.066460000000     0.407100000000     0.59898    
C21      C      0.269773333333     0.066460000000     0.907100000000     0.59898    
C21      C      0.269773333333     0.399793333333     0.407100000000     0.59898    
C21      C      0.269773333333     0.399793333333     0.907100000000     0.59898    
C21      C      0.269773333333     0.733126666667     0.407100000000     0.59898    
C21      C      0.269773333333     0.733126666667     0.907100000000     0.59898    
C21      C      0.603106666667     0.066460000000     0.407100000000     0.59898    
C21      C      0.603106666667     0.066460000000     0.907100000000     0.59898    
C21      C      0.603106666667     0.399793333333     0.407100000000     0.59898    
C21      C      0.603106666667     0.399793333333     0.907100000000     0.59898    
C21      C      0.603106666667     0.733126666667     0.407100000000     0.59898    
C21      C      0.603106666667     0.733126666667     0.907100000000     0.59898    
C21      C      0.936440000000     0.066460000000     0.407100000000     0.59898    
C21      C      0.936440000000     0.066460000000     0.907100000000     0.59898    
C21      C      0.936440000000     0.399793333333     0.407100000000     0.59898    
C21      C      0.936440000000     0.399793333333     0.907100000000     0.59898    
C21      C      0.936440000000     0.733126666667     0.407100000000     0.59898    
C21      C      0.936440000000     0.733126666667     0.907100000000     0.59898    
C22      C      0.065756666667     0.036530000000     0.274960000000     0.011725   
C22      C      0.065756666667     0.036530000000     0.774960000000     0.011725   
C22      C      0.065756666667     0.369863333333     0.274960000000     0.011725   
C22      C      0.065756666667     0.369863333333     0.774960000000     0.011725   
C22      C      0.065756666667     0.703196666667     0.274960000000     0.011725   
C22      C      0.065756666667     0.703196666667     0.774960000000     0.011725   
C22      C      0.399090000000     0.036530000000     0.274960000000     0.011725   
C22      C      0.399090000000     0.036530000000     0.774960000000     0.011725   
C22      C      0.399090000000     0.369863333333     0.274960000000     0.011725   
C22      C      0.399090000000     0.369863333333     0.774960000000     0.011725   
C22      C      0.399090000000     0.703196666667     0.274960000000     0.011725   
C22      C      0.399090000000     0.703196666667     0.774960000000     0.011725   
C22      C      0.732423333333     0.036530000000     0.274960000000     0.011725   
C22      C      0.732423333333     0.036530000000     0.774960000000     0.011725   
C22      C      0.732423333333     0.369863333333     0.274960000000     0.011725   
C22      C      0.732423333333     0.369863333333     0.774960000000     0.011725   
C22      C      0.732423333333     0.703196666667     0.274960000000     0.011725   
C22      C      0.732423333333     0.703196666667     0.774960000000     0.011725   
C23      C      0.267576666667     0.296803333333     0.225040000000    -0.231748   
C23      C      0.267576666667     0.296803333333     0.725040000000    -0.231748   
C23      C      0.267576666667     0.630136666667     0.225040000000    -0.231748   
C23      C      0.267576666667     0.630136666667     0.725040000000    -0.231748   
C23      C      0.267576666667     0.963470000000     0.225040000000    -0.231748   
C23      C      0.267576666667     0.963470000000     0.725040000000    -0.231748   
C23      C      0.600910000000     0.296803333333     0.225040000000    -0.231748   
C23      C      0.600910000000     0.296803333333     0.725040000000    -0.231748   
C23      C      0.600910000000     0.630136666667     0.225040000000    -0.231748   
C23      C      0.600910000000     0.630136666667     0.725040000000    -0.231748   
C23      C      0.600910000000     0.963470000000     0.225040000000    -0.231748   
C23      C      0.600910000000     0.963470000000     0.725040000000    -0.231748   
C23      C      0.934243333333     0.296803333333     0.225040000000    -0.231748   
C23      C      0.934243333333     0.296803333333     0.725040000000    -0.231748   
C23      C      0.934243333333     0.630136666667     0.225040000000    -0.231748   
C23      C      0.934243333333     0.630136666667     0.725040000000    -0.231748   
C23      C      0.934243333333     0.963470000000     0.225040000000    -0.231748   
C23      C      0.934243333333     0.963470000000     0.725040000000    -0.231748   
C24      C      0.158703333333     0.234070000000     0.175045000000     0.60658    
C24      C      0.158703333333     0.234070000000     0.675045000000     0.60658    
C24      C      0.158703333333     0.567403333333     0.175045000000     0.60658    
C24      C      0.158703333333     0.567403333333     0.675045000000     0.60658    
C24      C      0.158703333333     0.900736666667     0.175045000000     0.60658    
C24      C      0.158703333333     0.900736666667     0.675045000000     0.60658    
C24      C      0.492036666667     0.234070000000     0.175045000000     0.60658    
C24      C      0.492036666667     0.234070000000     0.675045000000     0.60658    
C24      C      0.492036666667     0.567403333333     0.175045000000     0.60658    
C24      C      0.492036666667     0.567403333333     0.675045000000     0.60658    
C24      C      0.492036666667     0.900736666667     0.175045000000     0.60658    
C24      C      0.492036666667     0.900736666667     0.675045000000     0.60658    
C24      C      0.825370000000     0.234070000000     0.175045000000     0.60658    
C24      C      0.825370000000     0.234070000000     0.675045000000     0.60658    
C24      C      0.825370000000     0.567403333333     0.175045000000     0.60658    
C24      C      0.825370000000     0.567403333333     0.675045000000     0.60658    
C24      C      0.825370000000     0.900736666667     0.175045000000     0.60658    
C24      C      0.825370000000     0.900736666667     0.675045000000     0.60658    
C25      C      0.229550000000     0.274643333333     0.208235000000    -0.088224   
C25      C      0.229550000000     0.274643333333     0.708235000000    -0.088224   
C25      C      0.229550000000     0.607976666667     0.208235000000    -0.088224   
C25      C      0.229550000000     0.607976666667     0.708235000000    -0.088224   
C25      C      0.229550000000     0.941310000000     0.208235000000    -0.088224   
C25      C      0.229550000000     0.941310000000     0.708235000000    -0.088224   
C25      C      0.562883333333     0.274643333333     0.208235000000    -0.088224   
C25      C      0.562883333333     0.274643333333     0.708235000000    -0.088224   
C25      C      0.562883333333     0.607976666667     0.208235000000    -0.088224   
C25      C      0.562883333333     0.607976666667     0.708235000000    -0.088224   
C25      C      0.562883333333     0.941310000000     0.208235000000    -0.088224   
C25      C      0.562883333333     0.941310000000     0.708235000000    -0.088224   
C25      C      0.896216666667     0.274643333333     0.208235000000    -0.088224   
C25      C      0.896216666667     0.274643333333     0.708235000000    -0.088224   
C25      C      0.896216666667     0.607976666667     0.208235000000    -0.088224   
C25      C      0.896216666667     0.607976666667     0.708235000000    -0.088224   
C25      C      0.896216666667     0.941310000000     0.208235000000    -0.088224   
C25      C      0.896216666667     0.941310000000     0.708235000000    -0.088224   
C26      C      0.024010000000     0.309323333333     0.125000000000    -0.166808   
C26      C      0.024010000000     0.309323333333     0.625000000000    -0.166808   
C26      C      0.024010000000     0.642656666667     0.125000000000    -0.166808   
C26      C      0.024010000000     0.642656666667     0.625000000000    -0.166808   
C26      C      0.024010000000     0.975990000000     0.125000000000    -0.166808   
C26      C      0.024010000000     0.975990000000     0.625000000000    -0.166808   
C26      C      0.357343333333     0.309323333333     0.125000000000    -0.166808   
C26      C      0.357343333333     0.309323333333     0.625000000000    -0.166808   
C26      C      0.357343333333     0.642656666667     0.125000000000    -0.166808   
C26      C      0.357343333333     0.642656666667     0.625000000000    -0.166808   
C26      C      0.357343333333     0.975990000000     0.125000000000    -0.166808   
C26      C      0.357343333333     0.975990000000     0.625000000000    -0.166808   
C26      C      0.690676666667     0.309323333333     0.125000000000    -0.166808   
C26      C      0.690676666667     0.309323333333     0.625000000000    -0.166808   
C26      C      0.690676666667     0.642656666667     0.125000000000    -0.166808   
C26      C      0.690676666667     0.642656666667     0.625000000000    -0.166808   
C26      C      0.690676666667     0.975990000000     0.125000000000    -0.166808   
C26      C      0.690676666667     0.975990000000     0.625000000000    -0.166808   
C27      C      0.079280000000     0.254053333333     0.125000000000    -0.162818   
C27      C      0.079280000000     0.254053333333     0.625000000000    -0.162818   
C27      C      0.079280000000     0.587386666667     0.125000000000    -0.162818   
C27      C      0.079280000000     0.587386666667     0.625000000000    -0.162818   
C27      C      0.079280000000     0.920720000000     0.125000000000    -0.162818   
C27      C      0.079280000000     0.920720000000     0.625000000000    -0.162818   
C27      C      0.412613333333     0.254053333333     0.125000000000    -0.162818   
C27      C      0.412613333333     0.254053333333     0.625000000000    -0.162818   
C27      C      0.412613333333     0.587386666667     0.125000000000    -0.162818   
C27      C      0.412613333333     0.587386666667     0.625000000000    -0.162818   
C27      C      0.412613333333     0.920720000000     0.125000000000    -0.162818   
C27      C      0.412613333333     0.920720000000     0.625000000000    -0.162818   
C27      C      0.745946666667     0.254053333333     0.125000000000    -0.162818   
C27      C      0.745946666667     0.254053333333     0.625000000000    -0.162818   
C27      C      0.745946666667     0.587386666667     0.125000000000    -0.162818   
C27      C      0.745946666667     0.587386666667     0.625000000000    -0.162818   
C27      C      0.745946666667     0.920720000000     0.125000000000    -0.162818   
C27      C      0.745946666667     0.920720000000     0.625000000000    -0.162818   
C28      C      0.309323333333     0.024010000000     0.375000000000    -0.173661   
C28      C      0.309323333333     0.024010000000     0.875000000000    -0.173661   
C28      C      0.309323333333     0.357343333333     0.375000000000    -0.173661   
C28      C      0.309323333333     0.357343333333     0.875000000000    -0.173661   
C28      C      0.309323333333     0.690676666667     0.375000000000    -0.173661   
C28      C      0.309323333333     0.690676666667     0.875000000000    -0.173661   
C28      C      0.642656666667     0.024010000000     0.375000000000    -0.173661   
C28      C      0.642656666667     0.024010000000     0.875000000000    -0.173661   
C28      C      0.642656666667     0.357343333333     0.375000000000    -0.173661   
C28      C      0.642656666667     0.357343333333     0.875000000000    -0.173661   
C28      C      0.642656666667     0.690676666667     0.375000000000    -0.173661   
C28      C      0.642656666667     0.690676666667     0.875000000000    -0.173661   
C28      C      0.975990000000     0.024010000000     0.375000000000    -0.173661   
C28      C      0.975990000000     0.024010000000     0.875000000000    -0.173661   
C28      C      0.975990000000     0.357343333333     0.375000000000    -0.173661   
C28      C      0.975990000000     0.357343333333     0.875000000000    -0.173661   
C28      C      0.975990000000     0.690676666667     0.375000000000    -0.173661   
C28      C      0.975990000000     0.690676666667     0.875000000000    -0.173661   
C29      C      0.254053333333     0.079280000000     0.375000000000    -0.095739   
C29      C      0.254053333333     0.079280000000     0.875000000000    -0.095739   
C29      C      0.254053333333     0.412613333333     0.375000000000    -0.095739   
C29      C      0.254053333333     0.412613333333     0.875000000000    -0.095739   
C29      C      0.254053333333     0.745946666667     0.375000000000    -0.095739   
C29      C      0.254053333333     0.745946666667     0.875000000000    -0.095739   
C29      C      0.587386666667     0.079280000000     0.375000000000    -0.095739   
C29      C      0.587386666667     0.079280000000     0.875000000000    -0.095739   
C29      C      0.587386666667     0.412613333333     0.375000000000    -0.095739   
C29      C      0.587386666667     0.412613333333     0.875000000000    -0.095739   
C29      C      0.587386666667     0.745946666667     0.375000000000    -0.095739   
C29      C      0.587386666667     0.745946666667     0.875000000000    -0.095739   
C29      C      0.920720000000     0.079280000000     0.375000000000    -0.095739   
C29      C      0.920720000000     0.079280000000     0.875000000000    -0.095739   
C29      C      0.920720000000     0.412613333333     0.375000000000    -0.095739   
C29      C      0.920720000000     0.412613333333     0.875000000000    -0.095739   
C29      C      0.920720000000     0.745946666667     0.375000000000    -0.095739   
C29      C      0.920720000000     0.745946666667     0.875000000000    -0.095739   
C30      C      0.021220000000     0.307233333333     0.058385000000     0.011696   
C30      C      0.021220000000     0.307233333333     0.558385000000     0.011696   
C30      C      0.021220000000     0.640566666667     0.058385000000     0.011696   
C30      C      0.021220000000     0.640566666667     0.558385000000     0.011696   
C30      C      0.021220000000     0.973900000000     0.058385000000     0.011696   
C30      C      0.021220000000     0.973900000000     0.558385000000     0.011696   
C30      C      0.354553333333     0.307233333333     0.058385000000     0.011696   
C30      C      0.354553333333     0.307233333333     0.558385000000     0.011696   
C30      C      0.354553333333     0.640566666667     0.058385000000     0.011696   
C30      C      0.354553333333     0.640566666667     0.558385000000     0.011696   
C30      C      0.354553333333     0.973900000000     0.058385000000     0.011696   
C30      C      0.354553333333     0.973900000000     0.558385000000     0.011696   
C30      C      0.687886666667     0.307233333333     0.058385000000     0.011696   
C30      C      0.687886666667     0.307233333333     0.558385000000     0.011696   
C30      C      0.687886666667     0.640566666667     0.058385000000     0.011696   
C30      C      0.687886666667     0.640566666667     0.558385000000     0.011696   
C30      C      0.687886666667     0.973900000000     0.058385000000     0.011696   
C30      C      0.687886666667     0.973900000000     0.558385000000     0.011696   
C31      C      0.041486666667     0.126526666667     0.066930000000     0.598978   
C31      C      0.041486666667     0.126526666667     0.566930000000     0.598978   
C31      C      0.041486666667     0.459860000000     0.066930000000     0.598978   
C31      C      0.041486666667     0.459860000000     0.566930000000     0.598978   
C31      C      0.041486666667     0.793193333333     0.066930000000     0.598978   
C31      C      0.041486666667     0.793193333333     0.566930000000     0.598978   
C31      C      0.374820000000     0.126526666667     0.066930000000     0.598978   
C31      C      0.374820000000     0.126526666667     0.566930000000     0.598978   
C31      C      0.374820000000     0.459860000000     0.066930000000     0.598978   
C31      C      0.374820000000     0.459860000000     0.566930000000     0.598978   
C31      C      0.374820000000     0.793193333333     0.066930000000     0.598978   
C31      C      0.374820000000     0.793193333333     0.566930000000     0.598978   
C31      C      0.708153333333     0.126526666667     0.066930000000     0.598978   
C31      C      0.708153333333     0.126526666667     0.566930000000     0.598978   
C31      C      0.708153333333     0.459860000000     0.066930000000     0.598978   
C31      C      0.708153333333     0.459860000000     0.566930000000     0.598978   
C31      C      0.708153333333     0.793193333333     0.066930000000     0.598978   
C31      C      0.708153333333     0.793193333333     0.566930000000     0.598978   
C32      C      0.122016666667     0.212696666667     0.092845000000     0.862238   
C32      C      0.122016666667     0.212696666667     0.592845000000     0.862238   
C32      C      0.122016666667     0.546030000000     0.092845000000     0.862238   
C32      C      0.122016666667     0.546030000000     0.592845000000     0.862238   
C32      C      0.122016666667     0.879363333333     0.092845000000     0.862238   
C32      C      0.122016666667     0.879363333333     0.592845000000     0.862238   
C32      C      0.455350000000     0.212696666667     0.092845000000     0.862238   
C32      C      0.455350000000     0.212696666667     0.592845000000     0.862238   
C32      C      0.455350000000     0.546030000000     0.092845000000     0.862238   
C32      C      0.455350000000     0.546030000000     0.592845000000     0.862238   
C32      C      0.455350000000     0.879363333333     0.092845000000     0.862238   
C32      C      0.455350000000     0.879363333333     0.592845000000     0.862238   
C32      C      0.788683333333     0.212696666667     0.092845000000     0.862238   
C32      C      0.788683333333     0.212696666667     0.592845000000     0.862238   
C32      C      0.788683333333     0.546030000000     0.092845000000     0.862238   
C32      C      0.788683333333     0.546030000000     0.592845000000     0.862238   
C32      C      0.788683333333     0.879363333333     0.092845000000     0.862238   
C32      C      0.788683333333     0.879363333333     0.592845000000     0.862238   
C33      C      0.061863333333     0.161536666667     0.083480000000     0.868566   
C33      C      0.061863333333     0.161536666667     0.583480000000     0.868566   
C33      C      0.061863333333     0.494870000000     0.083480000000     0.868566   
C33      C      0.061863333333     0.494870000000     0.583480000000     0.868566   
C33      C      0.061863333333     0.828203333333     0.083480000000     0.868566   
C33      C      0.061863333333     0.828203333333     0.583480000000     0.868566   
C33      C      0.395196666667     0.161536666667     0.083480000000     0.868566   
C33      C      0.395196666667     0.161536666667     0.583480000000     0.868566   
C33      C      0.395196666667     0.494870000000     0.083480000000     0.868566   
C33      C      0.395196666667     0.494870000000     0.583480000000     0.868566   
C33      C      0.395196666667     0.828203333333     0.083480000000     0.868566   
C33      C      0.395196666667     0.828203333333     0.583480000000     0.868566   
C33      C      0.728530000000     0.161536666667     0.083480000000     0.868566   
C33      C      0.728530000000     0.161536666667     0.583480000000     0.868566   
C33      C      0.728530000000     0.494870000000     0.083480000000     0.868566   
C33      C      0.728530000000     0.494870000000     0.583480000000     0.868566   
C33      C      0.728530000000     0.828203333333     0.083480000000     0.868566   
C33      C      0.728530000000     0.828203333333     0.583480000000     0.868566   
C34      C      0.116346666667     0.152446666667     0.049270000000     0.861679   
C34      C      0.116346666667     0.152446666667     0.549270000000     0.861679   
C34      C      0.116346666667     0.485780000000     0.049270000000     0.861679   
C34      C      0.116346666667     0.485780000000     0.549270000000     0.861679   
C34      C      0.116346666667     0.819113333333     0.049270000000     0.861679   
C34      C      0.116346666667     0.819113333333     0.549270000000     0.861679   
C34      C      0.449680000000     0.152446666667     0.049270000000     0.861679   
C34      C      0.449680000000     0.152446666667     0.549270000000     0.861679   
C34      C      0.449680000000     0.485780000000     0.049270000000     0.861679   
C34      C      0.449680000000     0.485780000000     0.549270000000     0.861679   
C34      C      0.449680000000     0.819113333333     0.049270000000     0.861679   
C34      C      0.449680000000     0.819113333333     0.549270000000     0.861679   
C34      C      0.783013333333     0.152446666667     0.049270000000     0.861679   
C34      C      0.783013333333     0.152446666667     0.549270000000     0.861679   
C34      C      0.783013333333     0.485780000000     0.049270000000     0.861679   
C34      C      0.783013333333     0.485780000000     0.549270000000     0.861679   
C34      C      0.783013333333     0.819113333333     0.049270000000     0.861679   
C34      C      0.783013333333     0.819113333333     0.549270000000     0.861679   
C35      C      0.096173333333     0.117013333333     0.032760000000     0.86838    
C35      C      0.096173333333     0.117013333333     0.532760000000     0.86838    
C35      C      0.096173333333     0.450346666667     0.032760000000     0.86838    
C35      C      0.096173333333     0.450346666667     0.532760000000     0.86838    
C35      C      0.096173333333     0.783680000000     0.032760000000     0.86838    
C35      C      0.096173333333     0.783680000000     0.532760000000     0.86838    
C35      C      0.429506666667     0.117013333333     0.032760000000     0.86838    
C35      C      0.429506666667     0.117013333333     0.532760000000     0.86838    
C35      C      0.429506666667     0.450346666667     0.032760000000     0.86838    
C35      C      0.429506666667     0.450346666667     0.532760000000     0.86838    
C35      C      0.429506666667     0.783680000000     0.032760000000     0.86838    
C35      C      0.429506666667     0.783680000000     0.532760000000     0.86838    
C35      C      0.762840000000     0.117013333333     0.032760000000     0.86838    
C35      C      0.762840000000     0.117013333333     0.532760000000     0.86838    
C35      C      0.762840000000     0.450346666667     0.032760000000     0.86838    
C35      C      0.762840000000     0.450346666667     0.532760000000     0.86838    
C35      C      0.762840000000     0.783680000000     0.032760000000     0.86838    
C35      C      0.762840000000     0.783680000000     0.532760000000     0.86838    
C36      C      0.058690000000     0.103783333333     0.041765000000     0.118957   
C36      C      0.058690000000     0.103783333333     0.541765000000     0.118957   
C36      C      0.058690000000     0.437116666667     0.041765000000     0.118957   
C36      C      0.058690000000     0.437116666667     0.541765000000     0.118957   
C36      C      0.058690000000     0.770450000000     0.041765000000     0.118957   
C36      C      0.058690000000     0.770450000000     0.541765000000     0.118957   
C36      C      0.392023333333     0.103783333333     0.041765000000     0.118957   
C36      C      0.392023333333     0.103783333333     0.541765000000     0.118957   
C36      C      0.392023333333     0.437116666667     0.041765000000     0.118957   
C36      C      0.392023333333     0.437116666667     0.541765000000     0.118957   
C36      C      0.392023333333     0.770450000000     0.041765000000     0.118957   
C36      C      0.392023333333     0.770450000000     0.541765000000     0.118957   
C36      C      0.725356666667     0.103783333333     0.041765000000     0.118957   
C36      C      0.725356666667     0.103783333333     0.541765000000     0.118957   
C36      C      0.725356666667     0.437116666667     0.041765000000     0.118957   
C36      C      0.725356666667     0.437116666667     0.541765000000     0.118957   
C36      C      0.725356666667     0.770450000000     0.041765000000     0.118957   
C36      C      0.725356666667     0.770450000000     0.541765000000     0.118957   
C37      C      0.099263333333     0.174630000000     0.074955000000     0.127071   
C37      C      0.099263333333     0.174630000000     0.574955000000     0.127071   
C37      C      0.099263333333     0.507963333333     0.074955000000     0.127071   
C37      C      0.099263333333     0.507963333333     0.574955000000     0.127071   
C37      C      0.099263333333     0.841296666667     0.074955000000     0.127071   
C37      C      0.099263333333     0.841296666667     0.574955000000     0.127071   
C37      C      0.432596666667     0.174630000000     0.074955000000     0.127071   
C37      C      0.432596666667     0.174630000000     0.574955000000     0.127071   
C37      C      0.432596666667     0.507963333333     0.074955000000     0.127071   
C37      C      0.432596666667     0.507963333333     0.574955000000     0.127071   
C37      C      0.432596666667     0.841296666667     0.074955000000     0.127071   
C37      C      0.432596666667     0.841296666667     0.574955000000     0.127071   
C37      C      0.765930000000     0.174630000000     0.074955000000     0.127071   
C37      C      0.765930000000     0.174630000000     0.574955000000     0.127071   
C37      C      0.765930000000     0.507963333333     0.074955000000     0.127071   
C37      C      0.765930000000     0.507963333333     0.574955000000     0.127071   
C37      C      0.765930000000     0.841296666667     0.074955000000     0.127071   
C37      C      0.765930000000     0.841296666667     0.574955000000     0.127071   
C38      C      0.036530000000     0.065756666667     0.024960000000     0.120155   
C38      C      0.036530000000     0.065756666667     0.524960000000     0.120155   
C38      C      0.036530000000     0.399090000000     0.024960000000     0.120155   
C38      C      0.036530000000     0.399090000000     0.524960000000     0.120155   
C38      C      0.036530000000     0.732423333333     0.024960000000     0.120155   
C38      C      0.036530000000     0.732423333333     0.524960000000     0.120155   
C38      C      0.369863333333     0.065756666667     0.024960000000     0.120155   
C38      C      0.369863333333     0.065756666667     0.524960000000     0.120155   
C38      C      0.369863333333     0.399090000000     0.024960000000     0.120155   
C38      C      0.369863333333     0.399090000000     0.524960000000     0.120155   
C38      C      0.369863333333     0.732423333333     0.024960000000     0.120155   
C38      C      0.369863333333     0.732423333333     0.524960000000     0.120155   
C38      C      0.703196666667     0.065756666667     0.024960000000     0.120155   
C38      C      0.703196666667     0.065756666667     0.524960000000     0.120155   
C38      C      0.703196666667     0.399090000000     0.024960000000     0.120155   
C38      C      0.703196666667     0.399090000000     0.524960000000     0.120155   
C38      C      0.703196666667     0.732423333333     0.024960000000     0.120155   
C38      C      0.703196666667     0.732423333333     0.524960000000     0.120155   
C39      C      0.036490000000     0.293830000000     0.093000000000     0.117257   
C39      C      0.036490000000     0.293830000000     0.593000000000     0.117257   
C39      C      0.036490000000     0.627163333333     0.093000000000     0.117257   
C39      C      0.036490000000     0.627163333333     0.593000000000     0.117257   
C39      C      0.036490000000     0.960496666667     0.093000000000     0.117257   
C39      C      0.036490000000     0.960496666667     0.593000000000     0.117257   
C39      C      0.369823333333     0.293830000000     0.093000000000     0.117257   
C39      C      0.369823333333     0.293830000000     0.593000000000     0.117257   
C39      C      0.369823333333     0.627163333333     0.093000000000     0.117257   
C39      C      0.369823333333     0.627163333333     0.593000000000     0.117257   
C39      C      0.369823333333     0.960496666667     0.093000000000     0.117257   
C39      C      0.369823333333     0.960496666667     0.593000000000     0.117257   
C39      C      0.703156666667     0.293830000000     0.093000000000     0.117257   
C39      C      0.703156666667     0.293830000000     0.593000000000     0.117257   
C39      C      0.703156666667     0.627163333333     0.093000000000     0.117257   
C39      C      0.703156666667     0.627163333333     0.593000000000     0.117257   
C39      C      0.703156666667     0.960496666667     0.093000000000     0.117257   
C39      C      0.703156666667     0.960496666667     0.593000000000     0.117257   
C40      C      0.063560000000     0.266873333333     0.092900000000     0.116964   
C40      C      0.063560000000     0.266873333333     0.592900000000     0.116964   
C40      C      0.063560000000     0.600206666667     0.092900000000     0.116964   
C40      C      0.063560000000     0.600206666667     0.592900000000     0.116964   
C40      C      0.063560000000     0.933540000000     0.092900000000     0.116964   
C40      C      0.063560000000     0.933540000000     0.592900000000     0.116964   
C40      C      0.396893333333     0.266873333333     0.092900000000     0.116964   
C40      C      0.396893333333     0.266873333333     0.592900000000     0.116964   
C40      C      0.396893333333     0.600206666667     0.092900000000     0.116964   
C40      C      0.396893333333     0.600206666667     0.592900000000     0.116964   
C40      C      0.396893333333     0.933540000000     0.092900000000     0.116964   
C40      C      0.396893333333     0.933540000000     0.592900000000     0.116964   
C40      C      0.730226666667     0.266873333333     0.092900000000     0.116964   
C40      C      0.730226666667     0.266873333333     0.592900000000     0.116964   
C40      C      0.730226666667     0.600206666667     0.092900000000     0.116964   
C40      C      0.730226666667     0.600206666667     0.592900000000     0.116964   
C40      C      0.730226666667     0.933540000000     0.092900000000     0.116964   
C40      C      0.730226666667     0.933540000000     0.592900000000     0.116964   
C41      C      0.026100000000     0.312113333333     0.191615000000     0.133473   
C41      C      0.026100000000     0.312113333333     0.691615000000     0.133473   
C41      C      0.026100000000     0.645446666667     0.191615000000     0.133473   
C41      C      0.026100000000     0.645446666667     0.691615000000     0.133473   
C41      C      0.026100000000     0.978780000000     0.191615000000     0.133473   
C41      C      0.026100000000     0.978780000000     0.691615000000     0.133473   
C41      C      0.359433333333     0.312113333333     0.191615000000     0.133473   
C41      C      0.359433333333     0.312113333333     0.691615000000     0.133473   
C41      C      0.359433333333     0.645446666667     0.191615000000     0.133473   
C41      C      0.359433333333     0.645446666667     0.691615000000     0.133473   
C41      C      0.359433333333     0.978780000000     0.191615000000     0.133473   
C41      C      0.359433333333     0.978780000000     0.691615000000     0.133473   
C41      C      0.692766666667     0.312113333333     0.191615000000     0.133473   
C41      C      0.692766666667     0.312113333333     0.691615000000     0.133473   
C41      C      0.692766666667     0.645446666667     0.191615000000     0.133473   
C41      C      0.692766666667     0.645446666667     0.691615000000     0.133473   
C41      C      0.692766666667     0.978780000000     0.191615000000     0.133473   
C41      C      0.692766666667     0.978780000000     0.691615000000     0.133473   
C42      C      0.206806666667     0.291846666667     0.183070000000     0.122913   
C42      C      0.206806666667     0.291846666667     0.683070000000     0.122913   
C42      C      0.206806666667     0.625180000000     0.183070000000     0.122913   
C42      C      0.206806666667     0.625180000000     0.683070000000     0.122913   
C42      C      0.206806666667     0.958513333333     0.183070000000     0.122913   
C42      C      0.206806666667     0.958513333333     0.683070000000     0.122913   
C42      C      0.540140000000     0.291846666667     0.183070000000     0.122913   
C42      C      0.540140000000     0.291846666667     0.683070000000     0.122913   
C42      C      0.540140000000     0.625180000000     0.183070000000     0.122913   
C42      C      0.540140000000     0.625180000000     0.683070000000     0.122913   
C42      C      0.540140000000     0.958513333333     0.183070000000     0.122913   
C42      C      0.540140000000     0.958513333333     0.683070000000     0.122913   
C42      C      0.873473333333     0.291846666667     0.183070000000     0.122913   
C42      C      0.873473333333     0.291846666667     0.683070000000     0.122913   
C42      C      0.873473333333     0.625180000000     0.183070000000     0.122913   
C42      C      0.873473333333     0.625180000000     0.683070000000     0.122913   
C42      C      0.873473333333     0.958513333333     0.183070000000     0.122913   
C42      C      0.873473333333     0.958513333333     0.683070000000     0.122913   
C43      C      0.120636666667     0.211316666667     0.157155000000     0.122561   
C43      C      0.120636666667     0.211316666667     0.657155000000     0.122561   
C43      C      0.120636666667     0.544650000000     0.157155000000     0.122561   
C43      C      0.120636666667     0.544650000000     0.657155000000     0.122561   
C43      C      0.120636666667     0.877983333333     0.157155000000     0.122561   
C43      C      0.120636666667     0.877983333333     0.657155000000     0.122561   
C43      C      0.453970000000     0.211316666667     0.157155000000     0.122561   
C43      C      0.453970000000     0.211316666667     0.657155000000     0.122561   
C43      C      0.453970000000     0.544650000000     0.157155000000     0.122561   
C43      C      0.453970000000     0.544650000000     0.657155000000     0.122561   
C43      C      0.453970000000     0.877983333333     0.157155000000     0.122561   
C43      C      0.453970000000     0.877983333333     0.657155000000     0.122561   
C43      C      0.787303333333     0.211316666667     0.157155000000     0.122561   
C43      C      0.787303333333     0.211316666667     0.657155000000     0.122561   
C43      C      0.787303333333     0.544650000000     0.157155000000     0.122561   
C43      C      0.787303333333     0.544650000000     0.657155000000     0.122561   
C43      C      0.787303333333     0.877983333333     0.157155000000     0.122561   
C43      C      0.787303333333     0.877983333333     0.657155000000     0.122561   
C44      C      0.171796666667     0.271470000000     0.166520000000     0.126942   
C44      C      0.171796666667     0.271470000000     0.666520000000     0.126942   
C44      C      0.171796666667     0.604803333333     0.166520000000     0.126942   
C44      C      0.171796666667     0.604803333333     0.666520000000     0.126942   
C44      C      0.171796666667     0.938136666667     0.166520000000     0.126942   
C44      C      0.171796666667     0.938136666667     0.666520000000     0.126942   
C44      C      0.505130000000     0.271470000000     0.166520000000     0.126942   
C44      C      0.505130000000     0.271470000000     0.666520000000     0.126942   
C44      C      0.505130000000     0.604803333333     0.166520000000     0.126942   
C44      C      0.505130000000     0.604803333333     0.666520000000     0.126942   
C44      C      0.505130000000     0.938136666667     0.166520000000     0.126942   
C44      C      0.505130000000     0.938136666667     0.666520000000     0.126942   
C44      C      0.838463333333     0.271470000000     0.166520000000     0.126942   
C44      C      0.838463333333     0.271470000000     0.666520000000     0.126942   
C44      C      0.838463333333     0.604803333333     0.166520000000     0.126942   
C44      C      0.838463333333     0.604803333333     0.666520000000     0.126942   
C44      C      0.838463333333     0.938136666667     0.166520000000     0.126942   
C44      C      0.838463333333     0.938136666667     0.666520000000     0.126942   
C45      C      0.180886666667     0.216986666667     0.200730000000     0.119848   
C45      C      0.180886666667     0.216986666667     0.700730000000     0.119848   
C45      C      0.180886666667     0.550320000000     0.200730000000     0.119848   
C45      C      0.180886666667     0.550320000000     0.700730000000     0.119848   
C45      C      0.180886666667     0.883653333333     0.200730000000     0.119848   
C45      C      0.180886666667     0.883653333333     0.700730000000     0.119848   
C45      C      0.514220000000     0.216986666667     0.200730000000     0.119848   
C45      C      0.514220000000     0.216986666667     0.700730000000     0.119848   
C45      C      0.514220000000     0.550320000000     0.200730000000     0.119848   
C45      C      0.514220000000     0.550320000000     0.700730000000     0.119848   
C45      C      0.514220000000     0.883653333333     0.200730000000     0.119848   
C45      C      0.514220000000     0.883653333333     0.700730000000     0.119848   
C45      C      0.847553333333     0.216986666667     0.200730000000     0.119848   
C45      C      0.847553333333     0.216986666667     0.700730000000     0.119848   
C45      C      0.847553333333     0.550320000000     0.200730000000     0.119848   
C45      C      0.847553333333     0.550320000000     0.700730000000     0.119848   
C45      C      0.847553333333     0.883653333333     0.200730000000     0.119848   
C45      C      0.847553333333     0.883653333333     0.700730000000     0.119848   
C46      C      0.216320000000     0.237160000000     0.217240000000     0.116801   
C46      C      0.216320000000     0.237160000000     0.717240000000     0.116801   
C46      C      0.216320000000     0.570493333333     0.217240000000     0.116801   
C46      C      0.216320000000     0.570493333333     0.717240000000     0.116801   
C46      C      0.216320000000     0.903826666667     0.217240000000     0.116801   
C46      C      0.216320000000     0.903826666667     0.717240000000     0.116801   
C46      C      0.549653333333     0.237160000000     0.217240000000     0.116801   
C46      C      0.549653333333     0.237160000000     0.717240000000     0.116801   
C46      C      0.549653333333     0.570493333333     0.217240000000     0.116801   
C46      C      0.549653333333     0.570493333333     0.717240000000     0.116801   
C46      C      0.549653333333     0.903826666667     0.217240000000     0.116801   
C46      C      0.549653333333     0.903826666667     0.717240000000     0.116801   
C46      C      0.882986666667     0.237160000000     0.217240000000     0.116801   
C46      C      0.882986666667     0.237160000000     0.717240000000     0.116801   
C46      C      0.882986666667     0.570493333333     0.217240000000     0.116801   
C46      C      0.882986666667     0.570493333333     0.717240000000     0.116801   
C46      C      0.882986666667     0.903826666667     0.217240000000     0.116801   
C46      C      0.882986666667     0.903826666667     0.717240000000     0.116801   
C47      C      0.296843333333     0.039503333333     0.407000000000     0.118865   
C47      C      0.296843333333     0.039503333333     0.907000000000     0.118865   
C47      C      0.296843333333     0.372836666667     0.407000000000     0.118865   
C47      C      0.296843333333     0.372836666667     0.907000000000     0.118865   
C47      C      0.296843333333     0.706170000000     0.407000000000     0.118865   
C47      C      0.296843333333     0.706170000000     0.907000000000     0.118865   
C47      C      0.630176666667     0.039503333333     0.407000000000     0.118865   
C47      C      0.630176666667     0.039503333333     0.907000000000     0.118865   
C47      C      0.630176666667     0.372836666667     0.407000000000     0.118865   
C47      C      0.630176666667     0.372836666667     0.907000000000     0.118865   
C47      C      0.630176666667     0.706170000000     0.407000000000     0.118865   
C47      C      0.630176666667     0.706170000000     0.907000000000     0.118865   
C47      C      0.963510000000     0.039503333333     0.407000000000     0.118865   
C47      C      0.963510000000     0.039503333333     0.907000000000     0.118865   
C47      C      0.963510000000     0.372836666667     0.407000000000     0.118865   
C47      C      0.963510000000     0.372836666667     0.907000000000     0.118865   
C47      C      0.963510000000     0.706170000000     0.407000000000     0.118865   
C47      C      0.963510000000     0.706170000000     0.907000000000     0.118865   
C48      C      0.296803333333     0.267576666667     0.475040000000     0.122811   
C48      C      0.296803333333     0.267576666667     0.975040000000     0.122811   
C48      C      0.296803333333     0.600910000000     0.475040000000     0.122811   
C48      C      0.296803333333     0.600910000000     0.975040000000     0.122811   
C48      C      0.296803333333     0.934243333333     0.475040000000     0.122811   
C48      C      0.296803333333     0.934243333333     0.975040000000     0.122811   
C48      C      0.630136666667     0.267576666667     0.475040000000     0.122811   
C48      C      0.630136666667     0.267576666667     0.975040000000     0.122811   
C48      C      0.630136666667     0.600910000000     0.475040000000     0.122811   
C48      C      0.630136666667     0.600910000000     0.975040000000     0.122811   
C48      C      0.630136666667     0.934243333333     0.475040000000     0.122811   
C48      C      0.630136666667     0.934243333333     0.975040000000     0.122811   
C48      C      0.963470000000     0.267576666667     0.475040000000     0.122811   
C48      C      0.963470000000     0.267576666667     0.975040000000     0.122811   
C48      C      0.963470000000     0.600910000000     0.475040000000     0.122811   
C48      C      0.963470000000     0.600910000000     0.975040000000     0.122811   
C48      C      0.963470000000     0.934243333333     0.475040000000     0.122811   
C48      C      0.963470000000     0.934243333333     0.975040000000     0.122811   
Cu1      Cu     0.323936666667     0.031833333333     0.236025000000     0.117085   
Cu1      Cu     0.323936666667     0.031833333333     0.736025000000     0.117085   
Cu1      Cu     0.323936666667     0.365166666667     0.236025000000     0.117085   
Cu1      Cu     0.323936666667     0.365166666667     0.736025000000     0.117085   
Cu1      Cu     0.323936666667     0.698500000000     0.236025000000     0.117085   
Cu1      Cu     0.323936666667     0.698500000000     0.736025000000     0.117085   
Cu1      Cu     0.657270000000     0.031833333333     0.236025000000     0.117085   
Cu1      Cu     0.657270000000     0.031833333333     0.736025000000     0.117085   
Cu1      Cu     0.657270000000     0.365166666667     0.236025000000     0.117085   
Cu1      Cu     0.657270000000     0.365166666667     0.736025000000     0.117085   
Cu1      Cu     0.657270000000     0.698500000000     0.236025000000     0.117085   
Cu1      Cu     0.657270000000     0.698500000000     0.736025000000     0.117085   
Cu1      Cu     0.990603333333     0.031833333333     0.236025000000     0.117085   
Cu1      Cu     0.990603333333     0.031833333333     0.736025000000     0.117085   
Cu1      Cu     0.990603333333     0.365166666667     0.236025000000     0.117085   
Cu1      Cu     0.990603333333     0.365166666667     0.736025000000     0.117085   
Cu1      Cu     0.990603333333     0.698500000000     0.236025000000     0.117085   
Cu1      Cu     0.990603333333     0.698500000000     0.736025000000     0.117085   
Cu2      Cu     0.301500000000     0.009396666667     0.013975000000     0.127069   
Cu2      Cu     0.301500000000     0.009396666667     0.513975000000     0.127069   
Cu2      Cu     0.301500000000     0.342730000000     0.013975000000     0.127069   
Cu2      Cu     0.301500000000     0.342730000000     0.513975000000     0.127069   
Cu2      Cu     0.301500000000     0.676063333333     0.013975000000     0.127069   
Cu2      Cu     0.301500000000     0.676063333333     0.513975000000     0.127069   
Cu2      Cu     0.634833333333     0.009396666667     0.013975000000     0.127069   
Cu2      Cu     0.634833333333     0.009396666667     0.513975000000     0.127069   
Cu2      Cu     0.634833333333     0.342730000000     0.013975000000     0.127069   
Cu2      Cu     0.634833333333     0.342730000000     0.513975000000     0.127069   
Cu2      Cu     0.634833333333     0.676063333333     0.013975000000     0.127069   
Cu2      Cu     0.634833333333     0.676063333333     0.513975000000     0.127069   
Cu2      Cu     0.968166666667     0.009396666667     0.013975000000     0.127069   
Cu2      Cu     0.968166666667     0.009396666667     0.513975000000     0.127069   
Cu2      Cu     0.968166666667     0.342730000000     0.013975000000     0.127069   
Cu2      Cu     0.968166666667     0.342730000000     0.513975000000     0.127069   
Cu2      Cu     0.968166666667     0.676063333333     0.013975000000     0.127069   
Cu2      Cu     0.968166666667     0.676063333333     0.513975000000     0.127069   
Cu3      Cu     0.009396666667     0.301500000000     0.263975000000     0.133468   
Cu3      Cu     0.009396666667     0.301500000000     0.763975000000     0.133468   
Cu3      Cu     0.009396666667     0.634833333333     0.263975000000     0.133468   
Cu3      Cu     0.009396666667     0.634833333333     0.763975000000     0.133468   
Cu3      Cu     0.009396666667     0.968166666667     0.263975000000     0.133468   
Cu3      Cu     0.009396666667     0.968166666667     0.763975000000     0.133468   
Cu3      Cu     0.342730000000     0.301500000000     0.263975000000     0.133468   
Cu3      Cu     0.342730000000     0.301500000000     0.763975000000     0.133468   
Cu3      Cu     0.342730000000     0.634833333333     0.263975000000     0.133468   
Cu3      Cu     0.342730000000     0.634833333333     0.763975000000     0.133468   
Cu3      Cu     0.342730000000     0.968166666667     0.263975000000     0.133468   
Cu3      Cu     0.342730000000     0.968166666667     0.763975000000     0.133468   
Cu3      Cu     0.676063333333     0.301500000000     0.263975000000     0.133468   
Cu3      Cu     0.676063333333     0.301500000000     0.763975000000     0.133468   
Cu3      Cu     0.676063333333     0.634833333333     0.263975000000     0.133468   
Cu3      Cu     0.676063333333     0.634833333333     0.763975000000     0.133468   
Cu3      Cu     0.676063333333     0.968166666667     0.263975000000     0.133468   
Cu3      Cu     0.676063333333     0.968166666667     0.763975000000     0.133468   
Cu4      Cu     0.031833333333     0.323936666667     0.486025000000     0.122287   
Cu4      Cu     0.031833333333     0.323936666667     0.986025000000     0.122287   
Cu4      Cu     0.031833333333     0.657270000000     0.486025000000     0.122287   
Cu4      Cu     0.031833333333     0.657270000000     0.986025000000     0.122287   
Cu4      Cu     0.031833333333     0.990603333333     0.486025000000     0.122287   
Cu4      Cu     0.031833333333     0.990603333333     0.986025000000     0.122287   
Cu4      Cu     0.365166666667     0.323936666667     0.486025000000     0.122287   
Cu4      Cu     0.365166666667     0.323936666667     0.986025000000     0.122287   
Cu4      Cu     0.365166666667     0.657270000000     0.486025000000     0.122287   
Cu4      Cu     0.365166666667     0.657270000000     0.986025000000     0.122287   
Cu4      Cu     0.365166666667     0.990603333333     0.486025000000     0.122287   
Cu4      Cu     0.365166666667     0.990603333333     0.986025000000     0.122287   
Cu4      Cu     0.698500000000     0.323936666667     0.486025000000     0.122287   
Cu4      Cu     0.698500000000     0.323936666667     0.986025000000     0.122287   
Cu4      Cu     0.698500000000     0.657270000000     0.486025000000     0.122287   
Cu4      Cu     0.698500000000     0.657270000000     0.986025000000     0.122287   
Cu4      Cu     0.698500000000     0.990603333333     0.486025000000     0.122287   
Cu4      Cu     0.698500000000     0.990603333333     0.986025000000     0.122287   
H1       H      0.208366666667     0.149766666667     0.348750000000     0.122807   
H1       H      0.208366666667     0.149766666667     0.848750000000     0.122807   
H1       H      0.208366666667     0.483100000000     0.348750000000     0.122807   
H1       H      0.208366666667     0.483100000000     0.848750000000     0.122807   
H1       H      0.208366666667     0.816433333333     0.348750000000     0.122807   
H1       H      0.208366666667     0.816433333333     0.848750000000     0.122807   
H1       H      0.541700000000     0.149766666667     0.348750000000     0.122807   
H1       H      0.541700000000     0.149766666667     0.848750000000     0.122807   
H1       H      0.541700000000     0.483100000000     0.348750000000     0.122807   
H1       H      0.541700000000     0.483100000000     0.848750000000     0.122807   
H1       H      0.541700000000     0.816433333333     0.348750000000     0.122807   
H1       H      0.541700000000     0.816433333333     0.848750000000     0.122807   
H1       H      0.875033333333     0.149766666667     0.348750000000     0.122807   
H1       H      0.875033333333     0.149766666667     0.848750000000     0.122807   
H1       H      0.875033333333     0.483100000000     0.348750000000     0.122807   
H1       H      0.875033333333     0.483100000000     0.848750000000     0.122807   
H1       H      0.875033333333     0.816433333333     0.348750000000     0.122807   
H1       H      0.875033333333     0.816433333333     0.848750000000     0.122807   
H2       H      0.256866666667     0.071666666667     0.320850000000     0.122294   
H2       H      0.256866666667     0.071666666667     0.820850000000     0.122294   
H2       H      0.256866666667     0.405000000000     0.320850000000     0.122294   
H2       H      0.256866666667     0.405000000000     0.820850000000     0.122294   
H2       H      0.256866666667     0.738333333333     0.320850000000     0.122294   
H2       H      0.256866666667     0.738333333333     0.820850000000     0.122294   
H2       H      0.590200000000     0.071666666667     0.320850000000     0.122294   
H2       H      0.590200000000     0.071666666667     0.820850000000     0.122294   
H2       H      0.590200000000     0.405000000000     0.320850000000     0.122294   
H2       H      0.590200000000     0.405000000000     0.820850000000     0.122294   
H2       H      0.590200000000     0.738333333333     0.320850000000     0.122294   
H2       H      0.590200000000     0.738333333333     0.820850000000     0.122294   
H2       H      0.923533333333     0.071666666667     0.320850000000     0.122294   
H2       H      0.923533333333     0.071666666667     0.820850000000     0.122294   
H2       H      0.923533333333     0.405000000000     0.320850000000     0.122294   
H2       H      0.923533333333     0.405000000000     0.820850000000     0.122294   
H2       H      0.923533333333     0.738333333333     0.320850000000     0.122294   
H2       H      0.923533333333     0.738333333333     0.820850000000     0.122294   
H3       H      0.101933333333     0.108066666667     0.265350000000     0.116801   
H3       H      0.101933333333     0.108066666667     0.765350000000     0.116801   
H3       H      0.101933333333     0.441400000000     0.265350000000     0.116801   
H3       H      0.101933333333     0.441400000000     0.765350000000     0.116801   
H3       H      0.101933333333     0.774733333333     0.265350000000     0.116801   
H3       H      0.101933333333     0.774733333333     0.765350000000     0.116801   
H3       H      0.435266666667     0.108066666667     0.265350000000     0.116801   
H3       H      0.435266666667     0.108066666667     0.765350000000     0.116801   
H3       H      0.435266666667     0.441400000000     0.265350000000     0.116801   
H3       H      0.435266666667     0.441400000000     0.765350000000     0.116801   
H3       H      0.435266666667     0.774733333333     0.265350000000     0.116801   
H3       H      0.435266666667     0.774733333333     0.765350000000     0.116801   
H3       H      0.768600000000     0.108066666667     0.265350000000     0.116801   
H3       H      0.768600000000     0.108066666667     0.765350000000     0.116801   
H3       H      0.768600000000     0.441400000000     0.265350000000     0.116801   
H3       H      0.768600000000     0.441400000000     0.765350000000     0.116801   
H3       H      0.768600000000     0.774733333333     0.265350000000     0.116801   
H3       H      0.768600000000     0.774733333333     0.765350000000     0.116801   
H4       H      0.161466666667     0.141866666667     0.292950000000     0.117081   
H4       H      0.161466666667     0.141866666667     0.792950000000     0.117081   
H4       H      0.161466666667     0.475200000000     0.292950000000     0.117081   
H4       H      0.161466666667     0.475200000000     0.792950000000     0.117081   
H4       H      0.161466666667     0.808533333333     0.292950000000     0.117081   
H4       H      0.161466666667     0.808533333333     0.792950000000     0.117081   
H4       H      0.494800000000     0.141866666667     0.292950000000     0.117081   
H4       H      0.494800000000     0.141866666667     0.792950000000     0.117081   
H4       H      0.494800000000     0.475200000000     0.292950000000     0.117081   
H4       H      0.494800000000     0.475200000000     0.792950000000     0.117081   
H4       H      0.494800000000     0.808533333333     0.292950000000     0.117081   
H4       H      0.494800000000     0.808533333333     0.792950000000     0.117081   
H4       H      0.828133333333     0.141866666667     0.292950000000     0.117081   
H4       H      0.828133333333     0.141866666667     0.792950000000     0.117081   
H4       H      0.828133333333     0.475200000000     0.292950000000     0.117081   
H4       H      0.828133333333     0.475200000000     0.792950000000     0.117081   
H4       H      0.828133333333     0.808533333333     0.292950000000     0.117081   
H4       H      0.828133333333     0.808533333333     0.792950000000     0.117081   
H5       H      0.176633333333     0.049966666667     0.350850000000     0.119844   
H5       H      0.176633333333     0.049966666667     0.850850000000     0.119844   
H5       H      0.176633333333     0.383300000000     0.350850000000     0.119844   
H5       H      0.176633333333     0.383300000000     0.850850000000     0.119844   
H5       H      0.176633333333     0.716633333333     0.350850000000     0.119844   
H5       H      0.176633333333     0.716633333333     0.850850000000     0.119844   
H5       H      0.509966666667     0.049966666667     0.350850000000     0.119844   
H5       H      0.509966666667     0.049966666667     0.850850000000     0.119844   
H5       H      0.509966666667     0.383300000000     0.350850000000     0.119844   
H5       H      0.509966666667     0.383300000000     0.850850000000     0.119844   
H5       H      0.509966666667     0.716633333333     0.350850000000     0.119844   
H5       H      0.509966666667     0.716633333333     0.850850000000     0.119844   
H5       H      0.843300000000     0.049966666667     0.350850000000     0.119844   
H5       H      0.843300000000     0.049966666667     0.850850000000     0.119844   
H5       H      0.843300000000     0.383300000000     0.350850000000     0.119844   
H5       H      0.843300000000     0.383300000000     0.850850000000     0.119844   
H5       H      0.843300000000     0.716633333333     0.350850000000     0.119844   
H5       H      0.843300000000     0.716633333333     0.850850000000     0.119844   
H6       H      0.005466666667     0.327866666667     0.125000000000     0.118853   
H6       H      0.005466666667     0.327866666667     0.625000000000     0.118853   
H6       H      0.005466666667     0.661200000000     0.125000000000     0.118853   
H6       H      0.005466666667     0.661200000000     0.625000000000     0.118853   
H6       H      0.005466666667     0.994533333333     0.125000000000     0.118853   
H6       H      0.005466666667     0.994533333333     0.625000000000     0.118853   
H6       H      0.338800000000     0.327866666667     0.125000000000     0.118853   
H6       H      0.338800000000     0.327866666667     0.625000000000     0.118853   
H6       H      0.338800000000     0.661200000000     0.125000000000     0.118853   
H6       H      0.338800000000     0.661200000000     0.625000000000     0.118853   
H6       H      0.338800000000     0.994533333333     0.125000000000     0.118853   
H6       H      0.338800000000     0.994533333333     0.625000000000     0.118853   
H6       H      0.672133333333     0.327866666667     0.125000000000     0.118853   
H6       H      0.672133333333     0.327866666667     0.625000000000     0.118853   
H6       H      0.672133333333     0.661200000000     0.125000000000     0.118853   
H6       H      0.672133333333     0.661200000000     0.625000000000     0.118853   
H6       H      0.672133333333     0.994533333333     0.125000000000     0.118853   
H6       H      0.672133333333     0.994533333333     0.625000000000     0.118853   
H7       H      0.233133333333     0.121933333333     0.325750000000     0.122552   
H7       H      0.233133333333     0.121933333333     0.825750000000     0.122552   
H7       H      0.233133333333     0.455266666667     0.325750000000     0.122552   
H7       H      0.233133333333     0.455266666667     0.825750000000     0.122552   
H7       H      0.233133333333     0.788600000000     0.325750000000     0.122552   
H7       H      0.233133333333     0.788600000000     0.825750000000     0.122552   
H7       H      0.566466666667     0.121933333333     0.325750000000     0.122552   
H7       H      0.566466666667     0.121933333333     0.825750000000     0.122552   
H7       H      0.566466666667     0.455266666667     0.325750000000     0.122552   
H7       H      0.566466666667     0.455266666667     0.825750000000     0.122552   
H7       H      0.566466666667     0.788600000000     0.325750000000     0.122552   
H7       H      0.566466666667     0.788600000000     0.825750000000     0.122552   
H7       H      0.899800000000     0.121933333333     0.325750000000     0.122552   
H7       H      0.899800000000     0.121933333333     0.825750000000     0.122552   
H7       H      0.899800000000     0.455266666667     0.325750000000     0.122552   
H7       H      0.899800000000     0.455266666667     0.825750000000     0.122552   
H7       H      0.899800000000     0.788600000000     0.325750000000     0.122552   
H7       H      0.899800000000     0.788600000000     0.825750000000     0.122552   
H8       H      0.118033333333     0.015633333333     0.322800000000     0.122909   
H8       H      0.118033333333     0.015633333333     0.822800000000     0.122909   
H8       H      0.118033333333     0.348966666667     0.322800000000     0.122909   
H8       H      0.118033333333     0.348966666667     0.822800000000     0.122909   
H8       H      0.118033333333     0.682300000000     0.322800000000     0.122909   
H8       H      0.118033333333     0.682300000000     0.822800000000     0.122909   
H8       H      0.451366666667     0.015633333333     0.322800000000     0.122909   
H8       H      0.451366666667     0.015633333333     0.822800000000     0.122909   
H8       H      0.451366666667     0.348966666667     0.322800000000     0.122909   
H8       H      0.451366666667     0.348966666667     0.822800000000     0.122909   
H8       H      0.451366666667     0.682300000000     0.322800000000     0.122909   
H8       H      0.451366666667     0.682300000000     0.822800000000     0.122909   
H8       H      0.784700000000     0.015633333333     0.322800000000     0.122909   
H8       H      0.784700000000     0.015633333333     0.822800000000     0.122909   
H8       H      0.784700000000     0.348966666667     0.322800000000     0.122909   
H8       H      0.784700000000     0.348966666667     0.822800000000     0.122909   
H8       H      0.784700000000     0.682300000000     0.322800000000     0.122909   
H8       H      0.784700000000     0.682300000000     0.822800000000     0.122909   
H9       H      0.261666666667     0.076466666667     0.429150000000     0.118943   
H9       H      0.261666666667     0.076466666667     0.929150000000     0.118943   
H9       H      0.261666666667     0.409800000000     0.429150000000     0.118943   
H9       H      0.261666666667     0.409800000000     0.929150000000     0.118943   
H9       H      0.261666666667     0.743133333333     0.429150000000     0.118943   
H9       H      0.261666666667     0.743133333333     0.929150000000     0.118943   
H9       H      0.595000000000     0.076466666667     0.429150000000     0.118943   
H9       H      0.595000000000     0.076466666667     0.929150000000     0.118943   
H9       H      0.595000000000     0.409800000000     0.429150000000     0.118943   
H9       H      0.595000000000     0.409800000000     0.929150000000     0.118943   
H9       H      0.595000000000     0.743133333333     0.429150000000     0.118943   
H9       H      0.595000000000     0.743133333333     0.929150000000     0.118943   
H9       H      0.928333333333     0.076466666667     0.429150000000     0.118943   
H9       H      0.928333333333     0.076466666667     0.929150000000     0.118943   
H9       H      0.928333333333     0.409800000000     0.429150000000     0.118943   
H9       H      0.928333333333     0.409800000000     0.929150000000     0.118943   
H9       H      0.928333333333     0.743133333333     0.429150000000     0.118943   
H9       H      0.928333333333     0.743133333333     0.929150000000     0.118943   
H10      H      0.225266666667     0.231400000000     0.484650000000     0.116963   
H10      H      0.225266666667     0.231400000000     0.984650000000     0.116963   
H10      H      0.225266666667     0.564733333333     0.484650000000     0.116963   
H10      H      0.225266666667     0.564733333333     0.984650000000     0.116963   
H10      H      0.225266666667     0.898066666667     0.484650000000     0.116963   
H10      H      0.225266666667     0.898066666667     0.984650000000     0.116963   
H10      H      0.558600000000     0.231400000000     0.484650000000     0.116963   
H10      H      0.558600000000     0.231400000000     0.984650000000     0.116963   
H10      H      0.558600000000     0.564733333333     0.484650000000     0.116963   
H10      H      0.558600000000     0.564733333333     0.984650000000     0.116963   
H10      H      0.558600000000     0.898066666667     0.484650000000     0.116963   
H10      H      0.558600000000     0.898066666667     0.984650000000     0.116963   
H10      H      0.891933333333     0.231400000000     0.484650000000     0.116963   
H10      H      0.891933333333     0.231400000000     0.984650000000     0.116963   
H10      H      0.891933333333     0.564733333333     0.484650000000     0.116963   
H10      H      0.891933333333     0.564733333333     0.984650000000     0.116963   
H10      H      0.891933333333     0.898066666667     0.484650000000     0.116963   
H10      H      0.891933333333     0.898066666667     0.984650000000     0.116963   
H11      H      0.283366666667     0.156700000000     0.399150000000     0.117253   
H11      H      0.283366666667     0.156700000000     0.899150000000     0.117253   
H11      H      0.283366666667     0.490033333333     0.399150000000     0.117253   
H11      H      0.283366666667     0.490033333333     0.899150000000     0.117253   
H11      H      0.283366666667     0.823366666667     0.399150000000     0.117253   
H11      H      0.283366666667     0.823366666667     0.899150000000     0.117253   
H11      H      0.616700000000     0.156700000000     0.399150000000     0.117253   
H11      H      0.616700000000     0.156700000000     0.899150000000     0.117253   
H11      H      0.616700000000     0.490033333333     0.399150000000     0.117253   
H11      H      0.616700000000     0.490033333333     0.899150000000     0.117253   
H11      H      0.616700000000     0.823366666667     0.399150000000     0.117253   
H11      H      0.616700000000     0.823366666667     0.899150000000     0.117253   
H11      H      0.950033333333     0.156700000000     0.399150000000     0.117253   
H11      H      0.950033333333     0.156700000000     0.899150000000     0.117253   
H11      H      0.950033333333     0.490033333333     0.399150000000     0.117253   
H11      H      0.950033333333     0.490033333333     0.899150000000     0.117253   
H11      H      0.950033333333     0.823366666667     0.399150000000     0.117253   
H11      H      0.950033333333     0.823366666667     0.899150000000     0.117253   
H12      H      0.183566666667     0.124966666667     0.401250000000     0.120152   
H12      H      0.183566666667     0.124966666667     0.901250000000     0.120152   
H12      H      0.183566666667     0.458300000000     0.401250000000     0.120152   
H12      H      0.183566666667     0.458300000000     0.901250000000     0.120152   
H12      H      0.183566666667     0.791633333333     0.401250000000     0.120152   
H12      H      0.183566666667     0.791633333333     0.901250000000     0.120152   
H12      H      0.516900000000     0.124966666667     0.401250000000     0.120152   
H12      H      0.516900000000     0.124966666667     0.901250000000     0.120152   
H12      H      0.516900000000     0.458300000000     0.401250000000     0.120152   
H12      H      0.516900000000     0.458300000000     0.901250000000     0.120152   
H12      H      0.516900000000     0.791633333333     0.401250000000     0.120152   
H12      H      0.516900000000     0.791633333333     0.901250000000     0.120152   
H12      H      0.850233333333     0.124966666667     0.401250000000     0.120152   
H12      H      0.850233333333     0.124966666667     0.901250000000     0.120152   
H12      H      0.850233333333     0.458300000000     0.401250000000     0.120152   
H12      H      0.850233333333     0.458300000000     0.901250000000     0.120152   
H12      H      0.850233333333     0.791633333333     0.401250000000     0.120152   
H12      H      0.850233333333     0.791633333333     0.901250000000     0.120152   
H13      H      0.211400000000     0.100200000000     0.424250000000     0.126941   
H13      H      0.211400000000     0.100200000000     0.924250000000     0.126941   
H13      H      0.211400000000     0.433533333333     0.424250000000     0.126941   
H13      H      0.211400000000     0.433533333333     0.924250000000     0.126941   
H13      H      0.211400000000     0.766866666667     0.424250000000     0.126941   
H13      H      0.211400000000     0.766866666667     0.924250000000     0.126941   
H13      H      0.544733333333     0.100200000000     0.424250000000     0.126941   
H13      H      0.544733333333     0.100200000000     0.924250000000     0.126941   
H13      H      0.544733333333     0.433533333333     0.424250000000     0.126941   
H13      H      0.544733333333     0.433533333333     0.924250000000     0.126941   
H13      H      0.544733333333     0.766866666667     0.424250000000     0.126941   
H13      H      0.544733333333     0.766866666667     0.924250000000     0.126941   
H13      H      0.878066666667     0.100200000000     0.424250000000     0.126941   
H13      H      0.878066666667     0.100200000000     0.924250000000     0.126941   
H13      H      0.878066666667     0.433533333333     0.424250000000     0.126941   
H13      H      0.878066666667     0.433533333333     0.924250000000     0.126941   
H13      H      0.878066666667     0.766866666667     0.424250000000     0.126941   
H13      H      0.878066666667     0.766866666667     0.924250000000     0.126941   
H14      H      0.191466666667     0.171866666667     0.457050000000    -0.077828   
H14      H      0.191466666667     0.171866666667     0.957050000000    -0.077828   
H14      H      0.191466666667     0.505200000000     0.457050000000    -0.077828   
H14      H      0.191466666667     0.505200000000     0.957050000000    -0.077828   
H14      H      0.191466666667     0.838533333333     0.457050000000    -0.077828   
H14      H      0.191466666667     0.838533333333     0.957050000000    -0.077828   
H14      H      0.524800000000     0.171866666667     0.457050000000    -0.077828   
H14      H      0.524800000000     0.171866666667     0.957050000000    -0.077828   
H14      H      0.524800000000     0.505200000000     0.457050000000    -0.077828   
H14      H      0.524800000000     0.505200000000     0.957050000000    -0.077828   
H14      H      0.524800000000     0.838533333333     0.457050000000    -0.077828   
H14      H      0.524800000000     0.838533333333     0.957050000000    -0.077828   
H14      H      0.858133333333     0.171866666667     0.457050000000    -0.077828   
H14      H      0.858133333333     0.171866666667     0.957050000000    -0.077828   
H14      H      0.858133333333     0.505200000000     0.457050000000    -0.077828   
H14      H      0.858133333333     0.505200000000     0.957050000000    -0.077828   
H14      H      0.858133333333     0.838533333333     0.457050000000    -0.077828   
H14      H      0.858133333333     0.838533333333     0.957050000000    -0.077828   
H15      H      0.076466666667     0.261666666667     0.179150000000    -0.077878   
H15      H      0.076466666667     0.261666666667     0.679150000000    -0.077878   
H15      H      0.076466666667     0.595000000000     0.179150000000    -0.077878   
H15      H      0.076466666667     0.595000000000     0.679150000000    -0.077878   
H15      H      0.076466666667     0.928333333333     0.179150000000    -0.077878   
H15      H      0.076466666667     0.928333333333     0.679150000000    -0.077878   
H15      H      0.409800000000     0.261666666667     0.179150000000    -0.077878   
H15      H      0.409800000000     0.261666666667     0.679150000000    -0.077878   
H15      H      0.409800000000     0.595000000000     0.179150000000    -0.077878   
H15      H      0.409800000000     0.595000000000     0.679150000000    -0.077878   
H15      H      0.409800000000     0.928333333333     0.179150000000    -0.077878   
H15      H      0.409800000000     0.928333333333     0.679150000000    -0.077878   
H15      H      0.743133333333     0.261666666667     0.179150000000    -0.077878   
H15      H      0.743133333333     0.261666666667     0.679150000000    -0.077878   
H15      H      0.743133333333     0.595000000000     0.179150000000    -0.077878   
H15      H      0.743133333333     0.595000000000     0.679150000000    -0.077878   
H15      H      0.743133333333     0.928333333333     0.179150000000    -0.077878   
H15      H      0.743133333333     0.928333333333     0.679150000000    -0.077878   
H16      H      0.327866666667     0.005466666667     0.375000000000    -0.541293   
H16      H      0.327866666667     0.005466666667     0.875000000000    -0.541293   
H16      H      0.327866666667     0.338800000000     0.375000000000    -0.541293   
H16      H      0.327866666667     0.338800000000     0.875000000000    -0.541293   
H16      H      0.327866666667     0.672133333333     0.375000000000    -0.541293   
H16      H      0.327866666667     0.672133333333     0.875000000000    -0.541293   
H16      H      0.661200000000     0.005466666667     0.375000000000    -0.541293   
H16      H      0.661200000000     0.005466666667     0.875000000000    -0.541293   
H16      H      0.661200000000     0.338800000000     0.375000000000    -0.541293   
H16      H      0.661200000000     0.338800000000     0.875000000000    -0.541293   
H16      H      0.661200000000     0.672133333333     0.375000000000    -0.541293   
H16      H      0.661200000000     0.672133333333     0.875000000000    -0.541293   
H16      H      0.994533333333     0.005466666667     0.375000000000    -0.541293   
H16      H      0.994533333333     0.005466666667     0.875000000000    -0.541293   
H16      H      0.994533333333     0.338800000000     0.375000000000    -0.541293   
H16      H      0.994533333333     0.338800000000     0.875000000000    -0.541293   
H16      H      0.994533333333     0.672133333333     0.375000000000    -0.541293   
H16      H      0.994533333333     0.672133333333     0.875000000000    -0.541293   
H17      H      0.015633333333     0.118033333333     0.072800000000    -0.541141   
H17      H      0.015633333333     0.118033333333     0.572800000000    -0.541141   
H17      H      0.015633333333     0.451366666667     0.072800000000    -0.541141   
H17      H      0.015633333333     0.451366666667     0.572800000000    -0.541141   
H17      H      0.015633333333     0.784700000000     0.072800000000    -0.541141   
H17      H      0.015633333333     0.784700000000     0.572800000000    -0.541141   
H17      H      0.348966666667     0.118033333333     0.072800000000    -0.541141   
H17      H      0.348966666667     0.118033333333     0.572800000000    -0.541141   
H17      H      0.348966666667     0.451366666667     0.072800000000    -0.541141   
H17      H      0.348966666667     0.451366666667     0.572800000000    -0.541141   
H17      H      0.348966666667     0.784700000000     0.072800000000    -0.541141   
H17      H      0.348966666667     0.784700000000     0.572800000000    -0.541141   
H17      H      0.682300000000     0.118033333333     0.072800000000    -0.541141   
H17      H      0.682300000000     0.118033333333     0.572800000000    -0.541141   
H17      H      0.682300000000     0.451366666667     0.072800000000    -0.541141   
H17      H      0.682300000000     0.451366666667     0.572800000000    -0.541141   
H17      H      0.682300000000     0.784700000000     0.072800000000    -0.541141   
H17      H      0.682300000000     0.784700000000     0.572800000000    -0.541141   
H18      H      0.121933333333     0.233133333333     0.075750000000    -0.541871   
H18      H      0.121933333333     0.233133333333     0.575750000000    -0.541871   
H18      H      0.121933333333     0.566466666667     0.075750000000    -0.541871   
H18      H      0.121933333333     0.566466666667     0.575750000000    -0.541871   
H18      H      0.121933333333     0.899800000000     0.075750000000    -0.541871   
H18      H      0.121933333333     0.899800000000     0.575750000000    -0.541871   
H18      H      0.455266666667     0.233133333333     0.075750000000    -0.541871   
H18      H      0.455266666667     0.233133333333     0.575750000000    -0.541871   
H18      H      0.455266666667     0.566466666667     0.075750000000    -0.541871   
H18      H      0.455266666667     0.566466666667     0.575750000000    -0.541871   
H18      H      0.455266666667     0.899800000000     0.075750000000    -0.541871   
H18      H      0.455266666667     0.899800000000     0.575750000000    -0.541871   
H18      H      0.788600000000     0.233133333333     0.075750000000    -0.541871   
H18      H      0.788600000000     0.233133333333     0.575750000000    -0.541871   
H18      H      0.788600000000     0.566466666667     0.075750000000    -0.541871   
H18      H      0.788600000000     0.566466666667     0.575750000000    -0.541871   
H18      H      0.788600000000     0.899800000000     0.075750000000    -0.541871   
H18      H      0.788600000000     0.899800000000     0.575750000000    -0.541871   
H19      H      0.317700000000     0.215300000000     0.427200000000    -0.52491    
H19      H      0.317700000000     0.215300000000     0.927200000000    -0.52491    
H19      H      0.317700000000     0.548633333333     0.427200000000    -0.52491    
H19      H      0.317700000000     0.548633333333     0.927200000000    -0.52491    
H19      H      0.317700000000     0.881966666667     0.427200000000    -0.52491    
H19      H      0.317700000000     0.881966666667     0.927200000000    -0.52491    
H19      H      0.651033333333     0.215300000000     0.427200000000    -0.52491    
H19      H      0.651033333333     0.215300000000     0.927200000000    -0.52491    
H19      H      0.651033333333     0.548633333333     0.427200000000    -0.52491    
H19      H      0.651033333333     0.548633333333     0.927200000000    -0.52491    
H19      H      0.651033333333     0.881966666667     0.427200000000    -0.52491    
H19      H      0.651033333333     0.881966666667     0.927200000000    -0.52491    
H19      H      0.984366666667     0.215300000000     0.427200000000    -0.52491    
H19      H      0.984366666667     0.215300000000     0.927200000000    -0.52491    
H19      H      0.984366666667     0.548633333333     0.427200000000    -0.52491    
H19      H      0.984366666667     0.548633333333     0.927200000000    -0.52491    
H19      H      0.984366666667     0.881966666667     0.427200000000    -0.52491    
H19      H      0.984366666667     0.881966666667     0.927200000000    -0.52491    
H20      H      0.049966666667     0.176633333333     0.100850000000    -0.530901   
H20      H      0.049966666667     0.176633333333     0.600850000000    -0.530901   
H20      H      0.049966666667     0.509966666667     0.100850000000    -0.530901   
H20      H      0.049966666667     0.509966666667     0.600850000000    -0.530901   
H20      H      0.049966666667     0.843300000000     0.100850000000    -0.530901   
H20      H      0.049966666667     0.843300000000     0.600850000000    -0.530901   
H20      H      0.383300000000     0.176633333333     0.100850000000    -0.530901   
H20      H      0.383300000000     0.176633333333     0.600850000000    -0.530901   
H20      H      0.383300000000     0.509966666667     0.100850000000    -0.530901   
H20      H      0.383300000000     0.509966666667     0.600850000000    -0.530901   
H20      H      0.383300000000     0.843300000000     0.100850000000    -0.530901   
H20      H      0.383300000000     0.843300000000     0.600850000000    -0.530901   
H20      H      0.716633333333     0.176633333333     0.100850000000    -0.530901   
H20      H      0.716633333333     0.176633333333     0.600850000000    -0.530901   
H20      H      0.716633333333     0.509966666667     0.100850000000    -0.530901   
H20      H      0.716633333333     0.509966666667     0.600850000000    -0.530901   
H20      H      0.716633333333     0.843300000000     0.100850000000    -0.530901   
H20      H      0.716633333333     0.843300000000     0.600850000000    -0.530901   
H21      H      0.141866666667     0.161466666667     0.042950000000    -0.540378   
H21      H      0.141866666667     0.161466666667     0.542950000000    -0.540378   
H21      H      0.141866666667     0.494800000000     0.042950000000    -0.540378   
H21      H      0.141866666667     0.494800000000     0.542950000000    -0.540378   
H21      H      0.141866666667     0.828133333333     0.042950000000    -0.540378   
H21      H      0.141866666667     0.828133333333     0.542950000000    -0.540378   
H21      H      0.475200000000     0.161466666667     0.042950000000    -0.540378   
H21      H      0.475200000000     0.161466666667     0.542950000000    -0.540378   
H21      H      0.475200000000     0.494800000000     0.042950000000    -0.540378   
H21      H      0.475200000000     0.494800000000     0.542950000000    -0.540378   
H21      H      0.475200000000     0.828133333333     0.042950000000    -0.540378   
H21      H      0.475200000000     0.828133333333     0.542950000000    -0.540378   
H21      H      0.808533333333     0.161466666667     0.042950000000    -0.540378   
H21      H      0.808533333333     0.161466666667     0.542950000000    -0.540378   
H21      H      0.808533333333     0.494800000000     0.042950000000    -0.540378   
H21      H      0.808533333333     0.494800000000     0.542950000000    -0.540378   
H21      H      0.808533333333     0.828133333333     0.042950000000    -0.540378   
H21      H      0.808533333333     0.828133333333     0.542950000000    -0.540378   
H22      H      0.108066666667     0.101933333333     0.015350000000    -0.525147   
H22      H      0.108066666667     0.101933333333     0.515350000000    -0.525147   
H22      H      0.108066666667     0.435266666667     0.015350000000    -0.525147   
H22      H      0.108066666667     0.435266666667     0.515350000000    -0.525147   
H22      H      0.108066666667     0.768600000000     0.015350000000    -0.525147   
H22      H      0.108066666667     0.768600000000     0.515350000000    -0.525147   
H22      H      0.441400000000     0.101933333333     0.015350000000    -0.525147   
H22      H      0.441400000000     0.101933333333     0.515350000000    -0.525147   
H22      H      0.441400000000     0.435266666667     0.015350000000    -0.525147   
H22      H      0.441400000000     0.435266666667     0.515350000000    -0.525147   
H22      H      0.441400000000     0.768600000000     0.015350000000    -0.525147   
H22      H      0.441400000000     0.768600000000     0.515350000000    -0.525147   
H22      H      0.774733333333     0.101933333333     0.015350000000    -0.525147   
H22      H      0.774733333333     0.101933333333     0.515350000000    -0.525147   
H22      H      0.774733333333     0.435266666667     0.015350000000    -0.525147   
H22      H      0.774733333333     0.435266666667     0.515350000000    -0.525147   
H22      H      0.774733333333     0.768600000000     0.015350000000    -0.525147   
H22      H      0.774733333333     0.768600000000     0.515350000000    -0.525147   
H23      H      0.149766666667     0.208366666667     0.098750000000    -0.531491   
H23      H      0.149766666667     0.208366666667     0.598750000000    -0.531491   
H23      H      0.149766666667     0.541700000000     0.098750000000    -0.531491   
H23      H      0.149766666667     0.541700000000     0.598750000000    -0.531491   
H23      H      0.149766666667     0.875033333333     0.098750000000    -0.531491   
H23      H      0.149766666667     0.875033333333     0.598750000000    -0.531491   
H23      H      0.483100000000     0.208366666667     0.098750000000    -0.531491   
H23      H      0.483100000000     0.208366666667     0.598750000000    -0.531491   
H23      H      0.483100000000     0.541700000000     0.098750000000    -0.531491   
H23      H      0.483100000000     0.541700000000     0.598750000000    -0.531491   
H23      H      0.483100000000     0.875033333333     0.098750000000    -0.531491   
H23      H      0.483100000000     0.875033333333     0.598750000000    -0.531491   
H23      H      0.816433333333     0.208366666667     0.098750000000    -0.531491   
H23      H      0.816433333333     0.208366666667     0.598750000000    -0.531491   
H23      H      0.816433333333     0.541700000000     0.098750000000    -0.531491   
H23      H      0.816433333333     0.541700000000     0.598750000000    -0.531491   
H23      H      0.816433333333     0.875033333333     0.098750000000    -0.531491   
H23      H      0.816433333333     0.875033333333     0.598750000000    -0.531491   
H24      H      0.215300000000     0.317700000000     0.177200000000    -0.541153   
H24      H      0.215300000000     0.317700000000     0.677200000000    -0.541153   
H24      H      0.215300000000     0.651033333333     0.177200000000    -0.541153   
H24      H      0.215300000000     0.651033333333     0.677200000000    -0.541153   
H24      H      0.215300000000     0.984366666667     0.177200000000    -0.541153   
H24      H      0.215300000000     0.984366666667     0.677200000000    -0.541153   
H24      H      0.548633333333     0.317700000000     0.177200000000    -0.541153   
H24      H      0.548633333333     0.317700000000     0.677200000000    -0.541153   
H24      H      0.548633333333     0.651033333333     0.177200000000    -0.541153   
H24      H      0.548633333333     0.651033333333     0.677200000000    -0.541153   
H24      H      0.548633333333     0.984366666667     0.177200000000    -0.541153   
H24      H      0.548633333333     0.984366666667     0.677200000000    -0.541153   
H24      H      0.881966666667     0.317700000000     0.177200000000    -0.541153   
H24      H      0.881966666667     0.317700000000     0.677200000000    -0.541153   
H24      H      0.881966666667     0.651033333333     0.177200000000    -0.541153   
H24      H      0.881966666667     0.651033333333     0.677200000000    -0.541153   
H24      H      0.881966666667     0.984366666667     0.177200000000    -0.541153   
H24      H      0.881966666667     0.984366666667     0.677200000000    -0.541153   
H25      H      0.100200000000     0.211400000000     0.174250000000    -0.541948   
H25      H      0.100200000000     0.211400000000     0.674250000000    -0.541948   
H25      H      0.100200000000     0.544733333333     0.174250000000    -0.541948   
H25      H      0.100200000000     0.544733333333     0.674250000000    -0.541948   
H25      H      0.100200000000     0.878066666667     0.174250000000    -0.541948   
H25      H      0.100200000000     0.878066666667     0.674250000000    -0.541948   
H25      H      0.433533333333     0.211400000000     0.174250000000    -0.541948   
H25      H      0.433533333333     0.211400000000     0.674250000000    -0.541948   
H25      H      0.433533333333     0.544733333333     0.174250000000    -0.541948   
H25      H      0.433533333333     0.544733333333     0.674250000000    -0.541948   
H25      H      0.433533333333     0.878066666667     0.174250000000    -0.541948   
H25      H      0.433533333333     0.878066666667     0.674250000000    -0.541948   
H25      H      0.766866666667     0.211400000000     0.174250000000    -0.541948   
H25      H      0.766866666667     0.211400000000     0.674250000000    -0.541948   
H25      H      0.766866666667     0.544733333333     0.174250000000    -0.541948   
H25      H      0.766866666667     0.544733333333     0.674250000000    -0.541948   
H25      H      0.766866666667     0.878066666667     0.174250000000    -0.541948   
H25      H      0.766866666667     0.878066666667     0.674250000000    -0.541948   
H26      H      0.124966666667     0.183566666667     0.151250000000    -0.524949   
H26      H      0.124966666667     0.183566666667     0.651250000000    -0.524949   
H26      H      0.124966666667     0.516900000000     0.151250000000    -0.524949   
H26      H      0.124966666667     0.516900000000     0.651250000000    -0.524949   
H26      H      0.124966666667     0.850233333333     0.151250000000    -0.524949   
H26      H      0.124966666667     0.850233333333     0.651250000000    -0.524949   
H26      H      0.458300000000     0.183566666667     0.151250000000    -0.524949   
H26      H      0.458300000000     0.183566666667     0.651250000000    -0.524949   
H26      H      0.458300000000     0.516900000000     0.151250000000    -0.524949   
H26      H      0.458300000000     0.516900000000     0.651250000000    -0.524949   
H26      H      0.458300000000     0.850233333333     0.151250000000    -0.524949   
H26      H      0.458300000000     0.850233333333     0.651250000000    -0.524949   
H26      H      0.791633333333     0.183566666667     0.151250000000    -0.524949   
H26      H      0.791633333333     0.183566666667     0.651250000000    -0.524949   
H26      H      0.791633333333     0.516900000000     0.151250000000    -0.524949   
H26      H      0.791633333333     0.516900000000     0.651250000000    -0.524949   
H26      H      0.791633333333     0.850233333333     0.151250000000    -0.524949   
H26      H      0.791633333333     0.850233333333     0.651250000000    -0.524949   
H27      H      0.156700000000     0.283366666667     0.149150000000    -0.53089    
H27      H      0.156700000000     0.283366666667     0.649150000000    -0.53089    
H27      H      0.156700000000     0.616700000000     0.149150000000    -0.53089    
H27      H      0.156700000000     0.616700000000     0.649150000000    -0.53089    
H27      H      0.156700000000     0.950033333333     0.149150000000    -0.53089    
H27      H      0.156700000000     0.950033333333     0.649150000000    -0.53089    
H27      H      0.490033333333     0.283366666667     0.149150000000    -0.53089    
H27      H      0.490033333333     0.283366666667     0.649150000000    -0.53089    
H27      H      0.490033333333     0.616700000000     0.149150000000    -0.53089    
H27      H      0.490033333333     0.616700000000     0.649150000000    -0.53089    
H27      H      0.490033333333     0.950033333333     0.149150000000    -0.53089    
H27      H      0.490033333333     0.950033333333     0.649150000000    -0.53089    
H27      H      0.823366666667     0.283366666667     0.149150000000    -0.53089    
H27      H      0.823366666667     0.283366666667     0.649150000000    -0.53089    
H27      H      0.823366666667     0.616700000000     0.149150000000    -0.53089    
H27      H      0.823366666667     0.616700000000     0.649150000000    -0.53089    
H27      H      0.823366666667     0.950033333333     0.149150000000    -0.53089    
H27      H      0.823366666667     0.950033333333     0.649150000000    -0.53089    
H28      H      0.171866666667     0.191466666667     0.207050000000    -0.540386   
H28      H      0.171866666667     0.191466666667     0.707050000000    -0.540386   
H28      H      0.171866666667     0.524800000000     0.207050000000    -0.540386   
H28      H      0.171866666667     0.524800000000     0.707050000000    -0.540386   
H28      H      0.171866666667     0.858133333333     0.207050000000    -0.540386   
H28      H      0.171866666667     0.858133333333     0.707050000000    -0.540386   
H28      H      0.505200000000     0.191466666667     0.207050000000    -0.540386   
H28      H      0.505200000000     0.191466666667     0.707050000000    -0.540386   
H28      H      0.505200000000     0.524800000000     0.207050000000    -0.540386   
H28      H      0.505200000000     0.524800000000     0.707050000000    -0.540386   
H28      H      0.505200000000     0.858133333333     0.207050000000    -0.540386   
H28      H      0.505200000000     0.858133333333     0.707050000000    -0.540386   
H28      H      0.838533333333     0.191466666667     0.207050000000    -0.540386   
H28      H      0.838533333333     0.191466666667     0.707050000000    -0.540386   
H28      H      0.838533333333     0.524800000000     0.207050000000    -0.540386   
H28      H      0.838533333333     0.524800000000     0.707050000000    -0.540386   
H28      H      0.838533333333     0.858133333333     0.207050000000    -0.540386   
H28      H      0.838533333333     0.858133333333     0.707050000000    -0.540386   
H29      H      0.231400000000     0.225266666667     0.234650000000    -0.541389   
H29      H      0.231400000000     0.225266666667     0.734650000000    -0.541389   
H29      H      0.231400000000     0.558600000000     0.234650000000    -0.541389   
H29      H      0.231400000000     0.558600000000     0.734650000000    -0.541389   
H29      H      0.231400000000     0.891933333333     0.234650000000    -0.541389   
H29      H      0.231400000000     0.891933333333     0.734650000000    -0.541389   
H29      H      0.564733333333     0.225266666667     0.234650000000    -0.541389   
H29      H      0.564733333333     0.225266666667     0.734650000000    -0.541389   
H29      H      0.564733333333     0.558600000000     0.234650000000    -0.541389   
H29      H      0.564733333333     0.558600000000     0.734650000000    -0.541389   
H29      H      0.564733333333     0.891933333333     0.234650000000    -0.541389   
H29      H      0.564733333333     0.891933333333     0.734650000000    -0.541389   
H29      H      0.898066666667     0.225266666667     0.234650000000    -0.541389   
H29      H      0.898066666667     0.225266666667     0.734650000000    -0.541389   
H29      H      0.898066666667     0.558600000000     0.234650000000    -0.541389   
H29      H      0.898066666667     0.558600000000     0.734650000000    -0.541389   
H29      H      0.898066666667     0.891933333333     0.234650000000    -0.541389   
H29      H      0.898066666667     0.891933333333     0.734650000000    -0.541389   
H30      H      0.071666666667     0.256866666667     0.070850000000    -0.531491   
H30      H      0.071666666667     0.256866666667     0.570850000000    -0.531491   
H30      H      0.071666666667     0.590200000000     0.070850000000    -0.531491   
H30      H      0.071666666667     0.590200000000     0.570850000000    -0.531491   
H30      H      0.071666666667     0.923533333333     0.070850000000    -0.531491   
H30      H      0.071666666667     0.923533333333     0.570850000000    -0.531491   
H30      H      0.405000000000     0.256866666667     0.070850000000    -0.531491   
H30      H      0.405000000000     0.256866666667     0.570850000000    -0.531491   
H30      H      0.405000000000     0.590200000000     0.070850000000    -0.531491   
H30      H      0.405000000000     0.590200000000     0.570850000000    -0.531491   
H30      H      0.405000000000     0.923533333333     0.070850000000    -0.531491   
H30      H      0.405000000000     0.923533333333     0.570850000000    -0.531491   
H30      H      0.738333333333     0.256866666667     0.070850000000    -0.531491   
H30      H      0.738333333333     0.256866666667     0.570850000000    -0.531491   
H30      H      0.738333333333     0.590200000000     0.070850000000    -0.531491   
H30      H      0.738333333333     0.590200000000     0.570850000000    -0.531491   
H30      H      0.738333333333     0.923533333333     0.070850000000    -0.531491   
H30      H      0.738333333333     0.923533333333     0.570850000000    -0.531491   
N1       N      0.227133333333     0.106200000000     0.375000000000    -0.525125   
N1       N      0.227133333333     0.106200000000     0.875000000000    -0.525125   
N1       N      0.227133333333     0.439533333333     0.375000000000    -0.525125   
N1       N      0.227133333333     0.439533333333     0.875000000000    -0.525125   
N1       N      0.227133333333     0.772866666667     0.375000000000    -0.525125   
N1       N      0.227133333333     0.772866666667     0.875000000000    -0.525125   
N1       N      0.560466666667     0.106200000000     0.375000000000    -0.525125   
N1       N      0.560466666667     0.106200000000     0.875000000000    -0.525125   
N1       N      0.560466666667     0.439533333333     0.375000000000    -0.525125   
N1       N      0.560466666667     0.439533333333     0.875000000000    -0.525125   
N1       N      0.560466666667     0.772866666667     0.375000000000    -0.525125   
N1       N      0.560466666667     0.772866666667     0.875000000000    -0.525125   
N1       N      0.893800000000     0.106200000000     0.375000000000    -0.525125   
N1       N      0.893800000000     0.106200000000     0.875000000000    -0.525125   
N1       N      0.893800000000     0.439533333333     0.375000000000    -0.525125   
N1       N      0.893800000000     0.439533333333     0.875000000000    -0.525125   
N1       N      0.893800000000     0.772866666667     0.375000000000    -0.525125   
N1       N      0.893800000000     0.772866666667     0.875000000000    -0.525125   
N2       N      0.106200000000     0.227133333333     0.125000000000    -0.028957   
N2       N      0.106200000000     0.227133333333     0.625000000000    -0.028957   
N2       N      0.106200000000     0.560466666667     0.125000000000    -0.028957   
N2       N      0.106200000000     0.560466666667     0.625000000000    -0.028957   
N2       N      0.106200000000     0.893800000000     0.125000000000    -0.028957   
N2       N      0.106200000000     0.893800000000     0.625000000000    -0.028957   
N2       N      0.439533333333     0.227133333333     0.125000000000    -0.028957   
N2       N      0.439533333333     0.227133333333     0.625000000000    -0.028957   
N2       N      0.439533333333     0.560466666667     0.125000000000    -0.028957   
N2       N      0.439533333333     0.560466666667     0.625000000000    -0.028957   
N2       N      0.439533333333     0.893800000000     0.125000000000    -0.028957   
N2       N      0.439533333333     0.893800000000     0.625000000000    -0.028957   
N2       N      0.772866666667     0.227133333333     0.125000000000    -0.028957   
N2       N      0.772866666667     0.227133333333     0.625000000000    -0.028957   
N2       N      0.772866666667     0.560466666667     0.125000000000    -0.028957   
N2       N      0.772866666667     0.560466666667     0.625000000000    -0.028957   
N2       N      0.772866666667     0.893800000000     0.125000000000    -0.028957   
N2       N      0.772866666667     0.893800000000     0.625000000000    -0.028957   
O1       O      0.029230000000     0.290783333333     0.217015000000    -0.231186   
O1       O      0.029230000000     0.290783333333     0.717015000000    -0.231186   
O1       O      0.029230000000     0.624116666667     0.217015000000    -0.231186   
O1       O      0.029230000000     0.624116666667     0.717015000000    -0.231186   
O1       O      0.029230000000     0.957450000000     0.217015000000    -0.231186   
O1       O      0.029230000000     0.957450000000     0.717015000000    -0.231186   
O1       O      0.362563333333     0.290783333333     0.217015000000    -0.231186   
O1       O      0.362563333333     0.290783333333     0.717015000000    -0.231186   
O1       O      0.362563333333     0.624116666667     0.217015000000    -0.231186   
O1       O      0.362563333333     0.624116666667     0.717015000000    -0.231186   
O1       O      0.362563333333     0.957450000000     0.217015000000    -0.231186   
O1       O      0.362563333333     0.957450000000     0.717015000000    -0.231186   
O1       O      0.695896666667     0.290783333333     0.217015000000    -0.231186   
O1       O      0.695896666667     0.290783333333     0.717015000000    -0.231186   
O1       O      0.695896666667     0.624116666667     0.217015000000    -0.231186   
O1       O      0.695896666667     0.624116666667     0.717015000000    -0.231186   
O1       O      0.695896666667     0.957450000000     0.217015000000    -0.231186   
O1       O      0.695896666667     0.957450000000     0.717015000000    -0.231186   
O2       O      0.055610000000     0.043616666667     0.006300000000     0.607374   
O2       O      0.055610000000     0.043616666667     0.506300000000     0.607374   
O2       O      0.055610000000     0.376950000000     0.006300000000     0.607374   
O2       O      0.055610000000     0.376950000000     0.506300000000     0.607374   
O2       O      0.055610000000     0.710283333333     0.006300000000     0.607374   
O2       O      0.055610000000     0.710283333333     0.506300000000     0.607374   
O2       O      0.388943333333     0.043616666667     0.006300000000     0.607374   
O2       O      0.388943333333     0.043616666667     0.506300000000     0.607374   
O2       O      0.388943333333     0.376950000000     0.006300000000     0.607374   
O2       O      0.388943333333     0.376950000000     0.506300000000     0.607374   
O2       O      0.388943333333     0.710283333333     0.006300000000     0.607374   
O2       O      0.388943333333     0.710283333333     0.506300000000     0.607374   
O2       O      0.722276666667     0.043616666667     0.006300000000     0.607374   
O2       O      0.722276666667     0.043616666667     0.506300000000     0.607374   
O2       O      0.722276666667     0.376950000000     0.006300000000     0.607374   
O2       O      0.722276666667     0.376950000000     0.506300000000     0.607374   
O2       O      0.722276666667     0.710283333333     0.006300000000     0.607374   
O2       O      0.722276666667     0.710283333333     0.506300000000     0.607374   
O3       O      0.042550000000     0.304103333333     0.032985000000    -0.087734   
O3       O      0.042550000000     0.304103333333     0.532985000000    -0.087734   
O3       O      0.042550000000     0.637436666667     0.032985000000    -0.087734   
O3       O      0.042550000000     0.637436666667     0.532985000000    -0.087734   
O3       O      0.042550000000     0.970770000000     0.032985000000    -0.087734   
O3       O      0.042550000000     0.970770000000     0.532985000000    -0.087734   
O3       O      0.375883333333     0.304103333333     0.032985000000    -0.087734   
O3       O      0.375883333333     0.304103333333     0.532985000000    -0.087734   
O3       O      0.375883333333     0.637436666667     0.032985000000    -0.087734   
O3       O      0.375883333333     0.637436666667     0.532985000000    -0.087734   
O3       O      0.375883333333     0.970770000000     0.032985000000    -0.087734   
O3       O      0.375883333333     0.970770000000     0.532985000000    -0.087734   
O3       O      0.709216666667     0.304103333333     0.032985000000    -0.087734   
O3       O      0.709216666667     0.304103333333     0.532985000000    -0.087734   
O3       O      0.709216666667     0.637436666667     0.032985000000    -0.087734   
O3       O      0.709216666667     0.637436666667     0.532985000000    -0.087734   
O3       O      0.709216666667     0.970770000000     0.032985000000    -0.087734   
O3       O      0.709216666667     0.970770000000     0.532985000000    -0.087734   
O4       O      0.012383333333     0.011230000000     0.192655000000    -0.166729   
O4       O      0.012383333333     0.011230000000     0.692655000000    -0.166729   
O4       O      0.012383333333     0.344563333333     0.192655000000    -0.166729   
O4       O      0.012383333333     0.344563333333     0.692655000000    -0.166729   
O4       O      0.012383333333     0.677896666667     0.192655000000    -0.166729   
O4       O      0.012383333333     0.677896666667     0.692655000000    -0.166729   
O4       O      0.345716666667     0.011230000000     0.192655000000    -0.166729   
O4       O      0.345716666667     0.011230000000     0.692655000000    -0.166729   
O4       O      0.345716666667     0.344563333333     0.192655000000    -0.166729   
O4       O      0.345716666667     0.344563333333     0.692655000000    -0.166729   
O4       O      0.345716666667     0.677896666667     0.192655000000    -0.166729   
O4       O      0.345716666667     0.677896666667     0.692655000000    -0.166729   
O4       O      0.679050000000     0.011230000000     0.192655000000    -0.166729   
O4       O      0.679050000000     0.011230000000     0.692655000000    -0.166729   
O4       O      0.679050000000     0.344563333333     0.192655000000    -0.166729   
O4       O      0.679050000000     0.344563333333     0.692655000000    -0.166729   
O4       O      0.679050000000     0.677896666667     0.192655000000    -0.166729   
O4       O      0.679050000000     0.677896666667     0.692655000000    -0.166729   
O5       O      0.274560000000     0.332280000000     0.219325000000    -0.163063   
O5       O      0.274560000000     0.332280000000     0.719325000000    -0.163063   
O5       O      0.274560000000     0.665613333333     0.219325000000    -0.163063   
O5       O      0.274560000000     0.665613333333     0.719325000000    -0.163063   
O5       O      0.274560000000     0.998946666667     0.219325000000    -0.163063   
O5       O      0.274560000000     0.998946666667     0.719325000000    -0.163063   
O5       O      0.607893333333     0.332280000000     0.219325000000    -0.163063   
O5       O      0.607893333333     0.332280000000     0.719325000000    -0.163063   
O5       O      0.607893333333     0.665613333333     0.219325000000    -0.163063   
O5       O      0.607893333333     0.665613333333     0.719325000000    -0.163063   
O5       O      0.607893333333     0.998946666667     0.219325000000    -0.163063   
O5       O      0.607893333333     0.998946666667     0.719325000000    -0.163063   
O5       O      0.941226666667     0.332280000000     0.219325000000    -0.163063   
O5       O      0.941226666667     0.332280000000     0.719325000000    -0.163063   
O5       O      0.941226666667     0.665613333333     0.219325000000    -0.163063   
O5       O      0.941226666667     0.665613333333     0.719325000000    -0.163063   
O5       O      0.941226666667     0.998946666667     0.219325000000    -0.163063   
O5       O      0.941226666667     0.998946666667     0.719325000000    -0.163063   
O6       O      0.289716666667     0.277723333333     0.243700000000    -0.173954   
O6       O      0.289716666667     0.277723333333     0.743700000000    -0.173954   
O6       O      0.289716666667     0.611056666667     0.243700000000    -0.173954   
O6       O      0.289716666667     0.611056666667     0.743700000000    -0.173954   
O6       O      0.289716666667     0.944390000000     0.243700000000    -0.173954   
O6       O      0.289716666667     0.944390000000     0.743700000000    -0.173954   
O6       O      0.623050000000     0.277723333333     0.243700000000    -0.173954   
O6       O      0.623050000000     0.277723333333     0.743700000000    -0.173954   
O6       O      0.623050000000     0.611056666667     0.243700000000    -0.173954   
O6       O      0.623050000000     0.611056666667     0.743700000000    -0.173954   
O6       O      0.623050000000     0.944390000000     0.243700000000    -0.173954   
O6       O      0.623050000000     0.944390000000     0.743700000000    -0.173954   
O6       O      0.956383333333     0.277723333333     0.243700000000    -0.173954   
O6       O      0.956383333333     0.277723333333     0.743700000000    -0.173954   
O6       O      0.956383333333     0.611056666667     0.243700000000    -0.173954   
O6       O      0.956383333333     0.611056666667     0.743700000000    -0.173954   
O6       O      0.956383333333     0.944390000000     0.243700000000    -0.173954   
O6       O      0.956383333333     0.944390000000     0.743700000000    -0.173954   
O7       O      0.011230000000     0.012383333333     0.442655000000    -0.095276   
O7       O      0.011230000000     0.012383333333     0.942655000000    -0.095276   
O7       O      0.011230000000     0.345716666667     0.442655000000    -0.095276   
O7       O      0.011230000000     0.345716666667     0.942655000000    -0.095276   
O7       O      0.011230000000     0.679050000000     0.442655000000    -0.095276   
O7       O      0.011230000000     0.679050000000     0.942655000000    -0.095276   
O7       O      0.344563333333     0.012383333333     0.442655000000    -0.095276   
O7       O      0.344563333333     0.012383333333     0.942655000000    -0.095276   
O7       O      0.344563333333     0.345716666667     0.442655000000    -0.095276   
O7       O      0.344563333333     0.345716666667     0.942655000000    -0.095276   
O7       O      0.344563333333     0.679050000000     0.442655000000    -0.095276   
O7       O      0.344563333333     0.679050000000     0.942655000000    -0.095276   
O7       O      0.677896666667     0.012383333333     0.442655000000    -0.095276   
O7       O      0.677896666667     0.012383333333     0.942655000000    -0.095276   
O7       O      0.677896666667     0.345716666667     0.442655000000    -0.095276   
O7       O      0.677896666667     0.345716666667     0.942655000000    -0.095276   
O7       O      0.677896666667     0.679050000000     0.442655000000    -0.095276   
O7       O      0.677896666667     0.679050000000     0.942655000000    -0.095276   
O8       O      0.001053333333     0.058773333333     0.030675000000     0.119984   
O8       O      0.001053333333     0.058773333333     0.530675000000     0.119984   
O8       O      0.001053333333     0.392106666667     0.030675000000     0.119984   
O8       O      0.001053333333     0.392106666667     0.530675000000     0.119984   
O8       O      0.001053333333     0.725440000000     0.030675000000     0.119984   
O8       O      0.001053333333     0.725440000000     0.530675000000     0.119984   
O8       O      0.334386666667     0.058773333333     0.030675000000     0.119984   
O8       O      0.334386666667     0.058773333333     0.530675000000     0.119984   
O8       O      0.334386666667     0.392106666667     0.030675000000     0.119984   
O8       O      0.334386666667     0.392106666667     0.530675000000     0.119984   
O8       O      0.334386666667     0.725440000000     0.030675000000     0.119984   
O8       O      0.334386666667     0.725440000000     0.530675000000     0.119984   
O8       O      0.667720000000     0.058773333333     0.030675000000     0.119984   
O8       O      0.667720000000     0.058773333333     0.530675000000     0.119984   
O8       O      0.667720000000     0.392106666667     0.030675000000     0.119984   
O8       O      0.667720000000     0.392106666667     0.530675000000     0.119984   
O8       O      0.667720000000     0.725440000000     0.030675000000     0.119984   
O8       O      0.667720000000     0.725440000000     0.530675000000     0.119984   
O9       O      0.277723333333     0.289716666667     0.493700000000    -0.231197   
O9       O      0.277723333333     0.289716666667     0.993700000000    -0.231197   
O9       O      0.277723333333     0.623050000000     0.493700000000    -0.231197   
O9       O      0.277723333333     0.623050000000     0.993700000000    -0.231197   
O9       O      0.277723333333     0.956383333333     0.493700000000    -0.231197   
O9       O      0.277723333333     0.956383333333     0.993700000000    -0.231197   
O9       O      0.611056666667     0.289716666667     0.493700000000    -0.231197   
O9       O      0.611056666667     0.289716666667     0.993700000000    -0.231197   
O9       O      0.611056666667     0.623050000000     0.493700000000    -0.231197   
O9       O      0.611056666667     0.623050000000     0.993700000000    -0.231197   
O9       O      0.611056666667     0.956383333333     0.493700000000    -0.231197   
O9       O      0.611056666667     0.956383333333     0.993700000000    -0.231197   
O9       O      0.944390000000     0.289716666667     0.493700000000    -0.231197   
O9       O      0.944390000000     0.289716666667     0.993700000000    -0.231197   
O9       O      0.944390000000     0.623050000000     0.493700000000    -0.231197   
O9       O      0.944390000000     0.623050000000     0.993700000000    -0.231197   
O9       O      0.944390000000     0.956383333333     0.493700000000    -0.231197   
O9       O      0.944390000000     0.956383333333     0.993700000000    -0.231197   
O10      O      0.290783333333     0.029230000000     0.467015000000     0.013914   
O10      O      0.290783333333     0.029230000000     0.967015000000     0.013914   
O10      O      0.290783333333     0.362563333333     0.467015000000     0.013914   
O10      O      0.290783333333     0.362563333333     0.967015000000     0.013914   
O10      O      0.290783333333     0.695896666667     0.467015000000     0.013914   
O10      O      0.290783333333     0.695896666667     0.967015000000     0.013914   
O10      O      0.624116666667     0.029230000000     0.467015000000     0.013914   
O10      O      0.624116666667     0.029230000000     0.967015000000     0.013914   
O10      O      0.624116666667     0.362563333333     0.467015000000     0.013914   
O10      O      0.624116666667     0.362563333333     0.967015000000     0.013914   
O10      O      0.624116666667     0.695896666667     0.467015000000     0.013914   
O10      O      0.624116666667     0.695896666667     0.967015000000     0.013914   
O10      O      0.957450000000     0.029230000000     0.467015000000     0.013914   
O10      O      0.957450000000     0.029230000000     0.967015000000     0.013914   
O10      O      0.957450000000     0.362563333333     0.467015000000     0.013914   
O10      O      0.957450000000     0.362563333333     0.967015000000     0.013914   
O10      O      0.957450000000     0.695896666667     0.467015000000     0.013914   
O10      O      0.957450000000     0.695896666667     0.967015000000     0.013914   
O11      O      0.320950000000     0.322103333333     0.307345000000     0.013941   
O11      O      0.320950000000     0.322103333333     0.807345000000     0.013941   
O11      O      0.320950000000     0.655436666667     0.307345000000     0.013941   
O11      O      0.320950000000     0.655436666667     0.807345000000     0.013941   
O11      O      0.320950000000     0.988770000000     0.307345000000     0.013941   
O11      O      0.320950000000     0.988770000000     0.807345000000     0.013941   
O11      O      0.654283333333     0.322103333333     0.307345000000     0.013941   
O11      O      0.654283333333     0.322103333333     0.807345000000     0.013941   
O11      O      0.654283333333     0.655436666667     0.307345000000     0.013941   
O11      O      0.654283333333     0.655436666667     0.807345000000     0.013941   
O11      O      0.654283333333     0.988770000000     0.307345000000     0.013941   
O11      O      0.654283333333     0.988770000000     0.807345000000     0.013941   
O11      O      0.987616666667     0.322103333333     0.307345000000     0.013941   
O11      O      0.987616666667     0.322103333333     0.807345000000     0.013941   
O11      O      0.987616666667     0.655436666667     0.307345000000     0.013941   
O11      O      0.987616666667     0.655436666667     0.807345000000     0.013941   
O11      O      0.987616666667     0.988770000000     0.307345000000     0.013941   
O11      O      0.987616666667     0.988770000000     0.807345000000     0.013941   
O12      O      0.058773333333     0.001053333333     0.280675000000     0.120112   
O12      O      0.058773333333     0.001053333333     0.780675000000     0.120112   
O12      O      0.058773333333     0.334386666667     0.280675000000     0.120112   
O12      O      0.058773333333     0.334386666667     0.780675000000     0.120112   
O12      O      0.058773333333     0.667720000000     0.280675000000     0.120112   
O12      O      0.058773333333     0.667720000000     0.780675000000     0.120112   
O12      O      0.392106666667     0.001053333333     0.280675000000     0.120112   
O12      O      0.392106666667     0.001053333333     0.780675000000     0.120112   
O12      O      0.392106666667     0.334386666667     0.280675000000     0.120112   
O12      O      0.392106666667     0.334386666667     0.780675000000     0.120112   
O12      O      0.392106666667     0.667720000000     0.280675000000     0.120112   
O12      O      0.392106666667     0.667720000000     0.780675000000     0.120112   
O12      O      0.725440000000     0.001053333333     0.280675000000     0.120112   
O12      O      0.725440000000     0.001053333333     0.780675000000     0.120112   
O12      O      0.725440000000     0.334386666667     0.280675000000     0.120112   
O12      O      0.725440000000     0.334386666667     0.780675000000     0.120112   
O12      O      0.725440000000     0.667720000000     0.280675000000     0.120112   
O12      O      0.725440000000     0.667720000000     0.780675000000     0.120112   
O13      O      0.043616666667     0.055610000000     0.256300000000    -0.025818   
O13      O      0.043616666667     0.055610000000     0.756300000000    -0.025818   
O13      O      0.043616666667     0.388943333333     0.256300000000    -0.025818   
O13      O      0.043616666667     0.388943333333     0.756300000000    -0.025818   
O13      O      0.043616666667     0.722276666667     0.256300000000    -0.025818   
O13      O      0.043616666667     0.722276666667     0.756300000000    -0.025818   
O13      O      0.376950000000     0.055610000000     0.256300000000    -0.025818   
O13      O      0.376950000000     0.055610000000     0.756300000000    -0.025818   
O13      O      0.376950000000     0.388943333333     0.256300000000    -0.025818   
O13      O      0.376950000000     0.388943333333     0.756300000000    -0.025818   
O13      O      0.376950000000     0.722276666667     0.256300000000    -0.025818   
O13      O      0.376950000000     0.722276666667     0.756300000000    -0.025818   
O13      O      0.710283333333     0.055610000000     0.256300000000    -0.025818   
O13      O      0.710283333333     0.055610000000     0.756300000000    -0.025818   
O13      O      0.710283333333     0.388943333333     0.256300000000    -0.025818   
O13      O      0.710283333333     0.388943333333     0.756300000000    -0.025818   
O13      O      0.710283333333     0.722276666667     0.256300000000    -0.025818   
O13      O      0.710283333333     0.722276666667     0.756300000000    -0.025818   
O14      O      0.304103333333     0.042550000000     0.282985000000    -0.095742   
O14      O      0.304103333333     0.042550000000     0.782985000000    -0.095742   
O14      O      0.304103333333     0.375883333333     0.282985000000    -0.095742   
O14      O      0.304103333333     0.375883333333     0.782985000000    -0.095742   
O14      O      0.304103333333     0.709216666667     0.282985000000    -0.095742   
O14      O      0.304103333333     0.709216666667     0.782985000000    -0.095742   
O14      O      0.637436666667     0.042550000000     0.282985000000    -0.095742   
O14      O      0.637436666667     0.042550000000     0.782985000000    -0.095742   
O14      O      0.637436666667     0.375883333333     0.282985000000    -0.095742   
O14      O      0.637436666667     0.375883333333     0.782985000000    -0.095742   
O14      O      0.637436666667     0.709216666667     0.282985000000    -0.095742   
O14      O      0.637436666667     0.709216666667     0.782985000000    -0.095742   
O14      O      0.970770000000     0.042550000000     0.282985000000    -0.095742   
O14      O      0.970770000000     0.042550000000     0.782985000000    -0.095742   
O14      O      0.970770000000     0.375883333333     0.282985000000    -0.095742   
O14      O      0.970770000000     0.375883333333     0.782985000000    -0.095742   
O14      O      0.970770000000     0.709216666667     0.282985000000    -0.095742   
O14      O      0.970770000000     0.709216666667     0.782985000000    -0.095742   
O15      O      0.332280000000     0.274560000000     0.469325000000    -0.173655   
O15      O      0.332280000000     0.274560000000     0.969325000000    -0.173655   
O15      O      0.332280000000     0.607893333333     0.469325000000    -0.173655   
O15      O      0.332280000000     0.607893333333     0.969325000000    -0.173655   
O15      O      0.332280000000     0.941226666667     0.469325000000    -0.173655   
O15      O      0.332280000000     0.941226666667     0.969325000000    -0.173655   
O15      O      0.665613333333     0.274560000000     0.469325000000    -0.173655   
O15      O      0.665613333333     0.274560000000     0.969325000000    -0.173655   
O15      O      0.665613333333     0.607893333333     0.469325000000    -0.173655   
O15      O      0.665613333333     0.607893333333     0.969325000000    -0.173655   
O15      O      0.665613333333     0.941226666667     0.469325000000    -0.173655   
O15      O      0.665613333333     0.941226666667     0.969325000000    -0.173655   
O15      O      0.998946666667     0.274560000000     0.469325000000    -0.173655   
O15      O      0.998946666667     0.274560000000     0.969325000000    -0.173655   
O15      O      0.998946666667     0.607893333333     0.469325000000    -0.173655   
O15      O      0.998946666667     0.607893333333     0.969325000000    -0.173655   
O15      O      0.998946666667     0.941226666667     0.469325000000    -0.173655   
O15      O      0.998946666667     0.941226666667     0.969325000000    -0.173655   
O16      O      0.322103333333     0.320950000000     0.057345000000    -0.162824   
O16      O      0.322103333333     0.320950000000     0.557345000000    -0.162824   
O16      O      0.322103333333     0.654283333333     0.057345000000    -0.162824   
O16      O      0.322103333333     0.654283333333     0.557345000000    -0.162824   
O16      O      0.322103333333     0.987616666667     0.057345000000    -0.162824   
O16      O      0.322103333333     0.987616666667     0.557345000000    -0.162824   
O16      O      0.655436666667     0.320950000000     0.057345000000    -0.162824   
O16      O      0.655436666667     0.320950000000     0.557345000000    -0.162824   
O16      O      0.655436666667     0.654283333333     0.057345000000    -0.162824   
O16      O      0.655436666667     0.654283333333     0.557345000000    -0.162824   
O16      O      0.655436666667     0.987616666667     0.057345000000    -0.162824   
O16      O      0.655436666667     0.987616666667     0.557345000000    -0.162824   
O16      O      0.988770000000     0.320950000000     0.057345000000    -0.162824   
O16      O      0.988770000000     0.320950000000     0.557345000000    -0.162824   
O16      O      0.988770000000     0.654283333333     0.057345000000    -0.162824   
O16      O      0.988770000000     0.654283333333     0.557345000000    -0.162824   
O16      O      0.988770000000     0.987616666667     0.057345000000    -0.162824   
O16      O      0.988770000000     0.987616666667     0.557345000000    -0.162824   


