data_YERJEL_clean_DDEC

_audit_creation_method RASPA-1.0
_audit_creation_date 2025-9-8
_audit_author_name ''

_cell_length_a    11.269
_cell_length_b    11.27
_cell_length_c    20.711
_cell_angle_alpha 77.608
_cell_angle_beta  77.603
_cell_angle_gamma 64.727
_cell_volume      41408.8

_symmetry_cell_setting          triclinic
_symmetry_space_group_name_Hall 'P 1'
_symmetry_space_group_name_H-M  'P 1'
_symmetry_Int_Tables_number     1

_symmetry_equiv_pos_as_xyz 'x,y,z'

loop_
_atom_site_label
_atom_site_type_symbol
_atom_site_fract_x
_atom_site_fract_y
_atom_site_fract_z
_atom_site_charge
C1       C      0.104033333333     0.011433333333     0.150500000000     0.542568   
C1       C      0.104033333333     0.011433333333     0.650500000000     0.542568   
C1       C      0.104033333333     0.344766666667     0.150500000000     0.542568   
C1       C      0.104033333333     0.344766666667     0.650500000000     0.542568   
C1       C      0.104033333333     0.678100000000     0.150500000000     0.542568   
C1       C      0.104033333333     0.678100000000     0.650500000000     0.542568   
C1       C      0.437366666667     0.011433333333     0.150500000000     0.542568   
C1       C      0.437366666667     0.011433333333     0.650500000000     0.542568   
C1       C      0.437366666667     0.344766666667     0.150500000000     0.542568   
C1       C      0.437366666667     0.344766666667     0.650500000000     0.542568   
C1       C      0.437366666667     0.678100000000     0.150500000000     0.542568   
C1       C      0.437366666667     0.678100000000     0.650500000000     0.542568   
C1       C      0.770700000000     0.011433333333     0.150500000000     0.542568   
C1       C      0.770700000000     0.011433333333     0.650500000000     0.542568   
C1       C      0.770700000000     0.344766666667     0.150500000000     0.542568   
C1       C      0.770700000000     0.344766666667     0.650500000000     0.542568   
C1       C      0.770700000000     0.678100000000     0.150500000000     0.542568   
C1       C      0.770700000000     0.678100000000     0.650500000000     0.542568   
C2       C      0.023800000000     0.230166666667     0.109500000000    -0.215887   
C2       C      0.023800000000     0.230166666667     0.609500000000    -0.215887   
C2       C      0.023800000000     0.563500000000     0.109500000000    -0.215887   
C2       C      0.023800000000     0.563500000000     0.609500000000    -0.215887   
C2       C      0.023800000000     0.896833333333     0.109500000000    -0.215887   
C2       C      0.023800000000     0.896833333333     0.609500000000    -0.215887   
C2       C      0.357133333333     0.230166666667     0.109500000000    -0.215887   
C2       C      0.357133333333     0.230166666667     0.609500000000    -0.215887   
C2       C      0.357133333333     0.563500000000     0.109500000000    -0.215887   
C2       C      0.357133333333     0.563500000000     0.609500000000    -0.215887   
C2       C      0.357133333333     0.896833333333     0.109500000000    -0.215887   
C2       C      0.357133333333     0.896833333333     0.609500000000    -0.215887   
C2       C      0.690466666667     0.230166666667     0.109500000000    -0.215887   
C2       C      0.690466666667     0.230166666667     0.609500000000    -0.215887   
C2       C      0.690466666667     0.563500000000     0.109500000000    -0.215887   
C2       C      0.690466666667     0.563500000000     0.609500000000    -0.215887   
C2       C      0.690466666667     0.896833333333     0.109500000000    -0.215887   
C2       C      0.690466666667     0.896833333333     0.609500000000    -0.215887   
C3       C      0.064933333333     0.214133333333     0.091050000000    -0.079925   
C3       C      0.064933333333     0.214133333333     0.591050000000    -0.079925   
C3       C      0.064933333333     0.547466666667     0.091050000000    -0.079925   
C3       C      0.064933333333     0.547466666667     0.591050000000    -0.079925   
C3       C      0.064933333333     0.880800000000     0.091050000000    -0.079925   
C3       C      0.064933333333     0.880800000000     0.591050000000    -0.079925   
C3       C      0.398266666667     0.214133333333     0.091050000000    -0.079925   
C3       C      0.398266666667     0.214133333333     0.591050000000    -0.079925   
C3       C      0.398266666667     0.547466666667     0.091050000000    -0.079925   
C3       C      0.398266666667     0.547466666667     0.591050000000    -0.079925   
C3       C      0.398266666667     0.880800000000     0.091050000000    -0.079925   
C3       C      0.398266666667     0.880800000000     0.591050000000    -0.079925   
C3       C      0.731600000000     0.214133333333     0.091050000000    -0.079925   
C3       C      0.731600000000     0.214133333333     0.591050000000    -0.079925   
C3       C      0.731600000000     0.547466666667     0.091050000000    -0.079925   
C3       C      0.731600000000     0.547466666667     0.591050000000    -0.079925   
C3       C      0.731600000000     0.880800000000     0.091050000000    -0.079925   
C3       C      0.731600000000     0.880800000000     0.591050000000    -0.079925   
C4       C      0.265900000000     0.278333333333     0.134800000000    -0.059158   
C4       C      0.265900000000     0.278333333333     0.634800000000    -0.059158   
C4       C      0.265900000000     0.611666666667     0.134800000000    -0.059158   
C4       C      0.265900000000     0.611666666667     0.634800000000    -0.059158   
C4       C      0.265900000000     0.945000000000     0.134800000000    -0.059158   
C4       C      0.265900000000     0.945000000000     0.634800000000    -0.059158   
C4       C      0.599233333333     0.278333333333     0.134800000000    -0.059158   
C4       C      0.599233333333     0.278333333333     0.634800000000    -0.059158   
C4       C      0.599233333333     0.611666666667     0.134800000000    -0.059158   
C4       C      0.599233333333     0.611666666667     0.634800000000    -0.059158   
C4       C      0.599233333333     0.945000000000     0.134800000000    -0.059158   
C4       C      0.599233333333     0.945000000000     0.634800000000    -0.059158   
C4       C      0.932566666667     0.278333333333     0.134800000000    -0.059158   
C4       C      0.932566666667     0.278333333333     0.634800000000    -0.059158   
C4       C      0.932566666667     0.611666666667     0.134800000000    -0.059158   
C4       C      0.932566666667     0.611666666667     0.634800000000    -0.059158   
C4       C      0.932566666667     0.945000000000     0.134800000000    -0.059158   
C4       C      0.932566666667     0.945000000000     0.634800000000    -0.059158   
C5       C      0.262333333333     0.318966666667     0.116750000000     0.102144   
C5       C      0.262333333333     0.318966666667     0.616750000000     0.102144   
C5       C      0.262333333333     0.652300000000     0.116750000000     0.102144   
C5       C      0.262333333333     0.652300000000     0.616750000000     0.102144   
C5       C      0.262333333333     0.985633333333     0.116750000000     0.102144   
C5       C      0.262333333333     0.985633333333     0.616750000000     0.102144   
C5       C      0.595666666667     0.318966666667     0.116750000000     0.102144   
C5       C      0.595666666667     0.318966666667     0.616750000000     0.102144   
C5       C      0.595666666667     0.652300000000     0.116750000000     0.102144   
C5       C      0.595666666667     0.652300000000     0.616750000000     0.102144   
C5       C      0.595666666667     0.985633333333     0.116750000000     0.102144   
C5       C      0.595666666667     0.985633333333     0.616750000000     0.102144   
C5       C      0.929000000000     0.318966666667     0.116750000000     0.102144   
C5       C      0.929000000000     0.318966666667     0.616750000000     0.102144   
C5       C      0.929000000000     0.652300000000     0.116750000000     0.102144   
C5       C      0.929000000000     0.652300000000     0.616750000000     0.102144   
C5       C      0.929000000000     0.985633333333     0.116750000000     0.102144   
C5       C      0.929000000000     0.985633333333     0.616750000000     0.102144   
C6       C      0.244633333333     0.022266666667     0.132950000000     0.101912   
C6       C      0.244633333333     0.022266666667     0.632950000000     0.101912   
C6       C      0.244633333333     0.355600000000     0.132950000000     0.101912   
C6       C      0.244633333333     0.355600000000     0.632950000000     0.101912   
C6       C      0.244633333333     0.688933333333     0.132950000000     0.101912   
C6       C      0.244633333333     0.688933333333     0.632950000000     0.101912   
C6       C      0.577966666667     0.022266666667     0.132950000000     0.101912   
C6       C      0.577966666667     0.022266666667     0.632950000000     0.101912   
C6       C      0.577966666667     0.355600000000     0.132950000000     0.101912   
C6       C      0.577966666667     0.355600000000     0.632950000000     0.101912   
C6       C      0.577966666667     0.688933333333     0.132950000000     0.101912   
C6       C      0.577966666667     0.688933333333     0.632950000000     0.101912   
C6       C      0.911300000000     0.022266666667     0.132950000000     0.101912   
C6       C      0.911300000000     0.022266666667     0.632950000000     0.101912   
C6       C      0.911300000000     0.355600000000     0.132950000000     0.101912   
C6       C      0.911300000000     0.355600000000     0.632950000000     0.101912   
C6       C      0.911300000000     0.688933333333     0.132950000000     0.101912   
C6       C      0.911300000000     0.688933333333     0.632950000000     0.101912   
C7       C      0.231633333333     0.018433333333     0.167000000000    -0.189417   
C7       C      0.231633333333     0.018433333333     0.667000000000    -0.189417   
C7       C      0.231633333333     0.351766666667     0.167000000000    -0.189417   
C7       C      0.231633333333     0.351766666667     0.667000000000    -0.189417   
C7       C      0.231633333333     0.685100000000     0.167000000000    -0.189417   
C7       C      0.231633333333     0.685100000000     0.667000000000    -0.189417   
C7       C      0.564966666667     0.018433333333     0.167000000000    -0.189417   
C7       C      0.564966666667     0.018433333333     0.667000000000    -0.189417   
C7       C      0.564966666667     0.351766666667     0.167000000000    -0.189417   
C7       C      0.564966666667     0.351766666667     0.667000000000    -0.189417   
C7       C      0.564966666667     0.685100000000     0.167000000000    -0.189417   
C7       C      0.564966666667     0.685100000000     0.667000000000    -0.189417   
C7       C      0.898300000000     0.018433333333     0.167000000000    -0.189417   
C7       C      0.898300000000     0.018433333333     0.667000000000    -0.189417   
C7       C      0.898300000000     0.351766666667     0.167000000000    -0.189417   
C7       C      0.898300000000     0.351766666667     0.667000000000    -0.189417   
C7       C      0.898300000000     0.685100000000     0.167000000000    -0.189417   
C7       C      0.898300000000     0.685100000000     0.667000000000    -0.189417   
C8       C      0.235733333333     0.310933333333     0.184500000000     0.542459   
C8       C      0.235733333333     0.310933333333     0.684500000000     0.542459   
C8       C      0.235733333333     0.644266666667     0.184500000000     0.542459   
C8       C      0.235733333333     0.644266666667     0.684500000000     0.542459   
C8       C      0.235733333333     0.977600000000     0.184500000000     0.542459   
C8       C      0.235733333333     0.977600000000     0.684500000000     0.542459   
C8       C      0.569066666667     0.310933333333     0.184500000000     0.542459   
C8       C      0.569066666667     0.310933333333     0.684500000000     0.542459   
C8       C      0.569066666667     0.644266666667     0.184500000000     0.542459   
C8       C      0.569066666667     0.644266666667     0.684500000000     0.542459   
C8       C      0.569066666667     0.977600000000     0.184500000000     0.542459   
C8       C      0.569066666667     0.977600000000     0.684500000000     0.542459   
C8       C      0.902400000000     0.310933333333     0.184500000000     0.542459   
C8       C      0.902400000000     0.310933333333     0.684500000000     0.542459   
C8       C      0.902400000000     0.644266666667     0.184500000000     0.542459   
C8       C      0.902400000000     0.644266666667     0.684500000000     0.542459   
C8       C      0.902400000000     0.977600000000     0.184500000000     0.542459   
C8       C      0.902400000000     0.977600000000     0.684500000000     0.542459   
C9       C      0.321933333333     0.228900000000     0.099600000000    -0.032751   
C9       C      0.321933333333     0.228900000000     0.599600000000    -0.032751   
C9       C      0.321933333333     0.562233333333     0.099600000000    -0.032751   
C9       C      0.321933333333     0.562233333333     0.599600000000    -0.032751   
C9       C      0.321933333333     0.895566666667     0.099600000000    -0.032751   
C9       C      0.321933333333     0.895566666667     0.599600000000    -0.032751   
C9       C      0.655266666667     0.228900000000     0.099600000000    -0.032751   
C9       C      0.655266666667     0.228900000000     0.599600000000    -0.032751   
C9       C      0.655266666667     0.562233333333     0.099600000000    -0.032751   
C9       C      0.655266666667     0.562233333333     0.599600000000    -0.032751   
C9       C      0.655266666667     0.895566666667     0.099600000000    -0.032751   
C9       C      0.655266666667     0.895566666667     0.599600000000    -0.032751   
C9       C      0.988600000000     0.228900000000     0.099600000000    -0.032751   
C9       C      0.988600000000     0.228900000000     0.599600000000    -0.032751   
C9       C      0.988600000000     0.562233333333     0.099600000000    -0.032751   
C9       C      0.988600000000     0.562233333333     0.599600000000    -0.032751   
C9       C      0.988600000000     0.895566666667     0.099600000000    -0.032751   
C9       C      0.988600000000     0.895566666667     0.599600000000    -0.032751   
C10      C      0.252433333333     0.274200000000     0.168150000000    -0.080076   
C10      C      0.252433333333     0.274200000000     0.668150000000    -0.080076   
C10      C      0.252433333333     0.607533333333     0.168150000000    -0.080076   
C10      C      0.252433333333     0.607533333333     0.668150000000    -0.080076   
C10      C      0.252433333333     0.940866666667     0.168150000000    -0.080076   
C10      C      0.252433333333     0.940866666667     0.668150000000    -0.080076   
C10      C      0.585766666667     0.274200000000     0.168150000000    -0.080076   
C10      C      0.585766666667     0.274200000000     0.668150000000    -0.080076   
C10      C      0.585766666667     0.607533333333     0.168150000000    -0.080076   
C10      C      0.585766666667     0.607533333333     0.668150000000    -0.080076   
C10      C      0.585766666667     0.940866666667     0.168150000000    -0.080076   
C10      C      0.585766666667     0.940866666667     0.668150000000    -0.080076   
C10      C      0.919100000000     0.274200000000     0.168150000000    -0.080076   
C10      C      0.919100000000     0.274200000000     0.668150000000    -0.080076   
C10      C      0.919100000000     0.607533333333     0.168150000000    -0.080076   
C10      C      0.919100000000     0.607533333333     0.668150000000    -0.080076   
C10      C      0.919100000000     0.940866666667     0.168150000000    -0.080076   
C10      C      0.919100000000     0.940866666667     0.668150000000    -0.080076   
C11      C      0.110033333333     0.093000000000     0.491550000000    -0.227545   
C11      C      0.110033333333     0.093000000000     0.991550000000    -0.227545   
C11      C      0.110033333333     0.426333333333     0.491550000000    -0.227545   
C11      C      0.110033333333     0.426333333333     0.991550000000    -0.227545   
C11      C      0.110033333333     0.759666666667     0.491550000000    -0.227545   
C11      C      0.110033333333     0.759666666667     0.991550000000    -0.227545   
C11      C      0.443366666667     0.093000000000     0.491550000000    -0.227545   
C11      C      0.443366666667     0.093000000000     0.991550000000    -0.227545   
C11      C      0.443366666667     0.426333333333     0.491550000000    -0.227545   
C11      C      0.443366666667     0.426333333333     0.991550000000    -0.227545   
C11      C      0.443366666667     0.759666666667     0.491550000000    -0.227545   
C11      C      0.443366666667     0.759666666667     0.991550000000    -0.227545   
C11      C      0.776700000000     0.093000000000     0.491550000000    -0.227545   
C11      C      0.776700000000     0.093000000000     0.991550000000    -0.227545   
C11      C      0.776700000000     0.426333333333     0.491550000000    -0.227545   
C11      C      0.776700000000     0.426333333333     0.991550000000    -0.227545   
C11      C      0.776700000000     0.759666666667     0.491550000000    -0.227545   
C11      C      0.776700000000     0.759666666667     0.991550000000    -0.227545   
C12      C      0.109466666667     0.052566666667     0.491900000000     0.276902   
C12      C      0.109466666667     0.052566666667     0.991900000000     0.276902   
C12      C      0.109466666667     0.385900000000     0.491900000000     0.276902   
C12      C      0.109466666667     0.385900000000     0.991900000000     0.276902   
C12      C      0.109466666667     0.719233333333     0.491900000000     0.276902   
C12      C      0.109466666667     0.719233333333     0.991900000000     0.276902   
C12      C      0.442800000000     0.052566666667     0.491900000000     0.276902   
C12      C      0.442800000000     0.052566666667     0.991900000000     0.276902   
C12      C      0.442800000000     0.385900000000     0.491900000000     0.276902   
C12      C      0.442800000000     0.385900000000     0.991900000000     0.276902   
C12      C      0.442800000000     0.719233333333     0.491900000000     0.276902   
C12      C      0.442800000000     0.719233333333     0.991900000000     0.276902   
C12      C      0.776133333333     0.052566666667     0.491900000000     0.276902   
C12      C      0.776133333333     0.052566666667     0.991900000000     0.276902   
C12      C      0.776133333333     0.385900000000     0.491900000000     0.276902   
C12      C      0.776133333333     0.385900000000     0.991900000000     0.276902   
C12      C      0.776133333333     0.719233333333     0.491900000000     0.276902   
C12      C      0.776133333333     0.719233333333     0.991900000000     0.276902   
C13      C      0.122066666667     0.033766666667     0.463350000000    -0.226983   
C13      C      0.122066666667     0.033766666667     0.963350000000    -0.226983   
C13      C      0.122066666667     0.367100000000     0.463350000000    -0.226983   
C13      C      0.122066666667     0.367100000000     0.963350000000    -0.226983   
C13      C      0.122066666667     0.700433333333     0.463350000000    -0.226983   
C13      C      0.122066666667     0.700433333333     0.963350000000    -0.226983   
C13      C      0.455400000000     0.033766666667     0.463350000000    -0.226983   
C13      C      0.455400000000     0.033766666667     0.963350000000    -0.226983   
C13      C      0.455400000000     0.367100000000     0.463350000000    -0.226983   
C13      C      0.455400000000     0.367100000000     0.963350000000    -0.226983   
C13      C      0.455400000000     0.700433333333     0.463350000000    -0.226983   
C13      C      0.455400000000     0.700433333333     0.963350000000    -0.226983   
C13      C      0.788733333333     0.033766666667     0.463350000000    -0.226983   
C13      C      0.788733333333     0.033766666667     0.963350000000    -0.226983   
C13      C      0.788733333333     0.367100000000     0.463350000000    -0.226983   
C13      C      0.788733333333     0.367100000000     0.963350000000    -0.226983   
C13      C      0.788733333333     0.700433333333     0.463350000000    -0.226983   
C13      C      0.788733333333     0.700433333333     0.963350000000    -0.226983   
C14      C      0.134933333333     0.057666666667     0.435100000000    -0.091515   
C14      C      0.134933333333     0.057666666667     0.935100000000    -0.091515   
C14      C      0.134933333333     0.391000000000     0.435100000000    -0.091515   
C14      C      0.134933333333     0.391000000000     0.935100000000    -0.091515   
C14      C      0.134933333333     0.724333333333     0.435100000000    -0.091515   
C14      C      0.134933333333     0.724333333333     0.935100000000    -0.091515   
C14      C      0.468266666667     0.057666666667     0.435100000000    -0.091515   
C14      C      0.468266666667     0.057666666667     0.935100000000    -0.091515   
C14      C      0.468266666667     0.391000000000     0.435100000000    -0.091515   
C14      C      0.468266666667     0.391000000000     0.935100000000    -0.091515   
C14      C      0.468266666667     0.724333333333     0.435100000000    -0.091515   
C14      C      0.468266666667     0.724333333333     0.935100000000    -0.091515   
C14      C      0.801600000000     0.057666666667     0.435100000000    -0.091515   
C14      C      0.801600000000     0.057666666667     0.935100000000    -0.091515   
C14      C      0.801600000000     0.391000000000     0.435100000000    -0.091515   
C14      C      0.801600000000     0.391000000000     0.935100000000    -0.091515   
C14      C      0.801600000000     0.724333333333     0.435100000000    -0.091515   
C14      C      0.801600000000     0.724333333333     0.935100000000    -0.091515   
C15      C      0.134700000000     0.098166666667     0.436850000000    -0.241819   
C15      C      0.134700000000     0.098166666667     0.936850000000    -0.241819   
C15      C      0.134700000000     0.431500000000     0.436850000000    -0.241819   
C15      C      0.134700000000     0.431500000000     0.936850000000    -0.241819   
C15      C      0.134700000000     0.764833333333     0.436850000000    -0.241819   
C15      C      0.134700000000     0.764833333333     0.936850000000    -0.241819   
C15      C      0.468033333333     0.098166666667     0.436850000000    -0.241819   
C15      C      0.468033333333     0.098166666667     0.936850000000    -0.241819   
C15      C      0.468033333333     0.431500000000     0.436850000000    -0.241819   
C15      C      0.468033333333     0.431500000000     0.936850000000    -0.241819   
C15      C      0.468033333333     0.764833333333     0.436850000000    -0.241819   
C15      C      0.468033333333     0.764833333333     0.936850000000    -0.241819   
C15      C      0.801366666667     0.098166666667     0.436850000000    -0.241819   
C15      C      0.801366666667     0.098166666667     0.936850000000    -0.241819   
C15      C      0.801366666667     0.431500000000     0.436850000000    -0.241819   
C15      C      0.801366666667     0.431500000000     0.936850000000    -0.241819   
C15      C      0.801366666667     0.764833333333     0.436850000000    -0.241819   
C15      C      0.801366666667     0.764833333333     0.936850000000    -0.241819   
C16      C      0.121033333333     0.323566666667     0.463100000000    -0.086352   
C16      C      0.121033333333     0.323566666667     0.963100000000    -0.086352   
C16      C      0.121033333333     0.656900000000     0.463100000000    -0.086352   
C16      C      0.121033333333     0.656900000000     0.963100000000    -0.086352   
C16      C      0.121033333333     0.990233333333     0.463100000000    -0.086352   
C16      C      0.121033333333     0.990233333333     0.963100000000    -0.086352   
C16      C      0.454366666667     0.323566666667     0.463100000000    -0.086352   
C16      C      0.454366666667     0.323566666667     0.963100000000    -0.086352   
C16      C      0.454366666667     0.656900000000     0.463100000000    -0.086352   
C16      C      0.454366666667     0.656900000000     0.963100000000    -0.086352   
C16      C      0.454366666667     0.990233333333     0.463100000000    -0.086352   
C16      C      0.454366666667     0.990233333333     0.963100000000    -0.086352   
C16      C      0.787700000000     0.323566666667     0.463100000000    -0.086352   
C16      C      0.787700000000     0.323566666667     0.963100000000    -0.086352   
C16      C      0.787700000000     0.656900000000     0.463100000000    -0.086352   
C16      C      0.787700000000     0.656900000000     0.963100000000    -0.086352   
C16      C      0.787700000000     0.990233333333     0.463100000000    -0.086352   
C16      C      0.787700000000     0.990233333333     0.963100000000    -0.086352   
C17      C      0.092600000000     0.308366666667     0.486600000000    -0.059579   
C17      C      0.092600000000     0.308366666667     0.986600000000    -0.059579   
C17      C      0.092600000000     0.641700000000     0.486600000000    -0.059579   
C17      C      0.092600000000     0.641700000000     0.986600000000    -0.059579   
C17      C      0.092600000000     0.975033333333     0.486600000000    -0.059579   
C17      C      0.092600000000     0.975033333333     0.986600000000    -0.059579   
C17      C      0.425933333333     0.308366666667     0.486600000000    -0.059579   
C17      C      0.425933333333     0.308366666667     0.986600000000    -0.059579   
C17      C      0.425933333333     0.641700000000     0.486600000000    -0.059579   
C17      C      0.425933333333     0.641700000000     0.986600000000    -0.059579   
C17      C      0.425933333333     0.975033333333     0.486600000000    -0.059579   
C17      C      0.425933333333     0.975033333333     0.986600000000    -0.059579   
C17      C      0.759266666667     0.308366666667     0.486600000000    -0.059579   
C17      C      0.759266666667     0.308366666667     0.986600000000    -0.059579   
C17      C      0.759266666667     0.641700000000     0.486600000000    -0.059579   
C17      C      0.759266666667     0.641700000000     0.986600000000    -0.059579   
C17      C      0.759266666667     0.975033333333     0.486600000000    -0.059579   
C17      C      0.759266666667     0.975033333333     0.986600000000    -0.059579   
C18      C      0.212466666667     0.057600000000     0.185250000000    -0.079517   
C18      C      0.212466666667     0.057600000000     0.685250000000    -0.079517   
C18      C      0.212466666667     0.390933333333     0.185250000000    -0.079517   
C18      C      0.212466666667     0.390933333333     0.685250000000    -0.079517   
C18      C      0.212466666667     0.724266666667     0.185250000000    -0.079517   
C18      C      0.212466666667     0.724266666667     0.685250000000    -0.079517   
C18      C      0.545800000000     0.057600000000     0.185250000000    -0.079517   
C18      C      0.545800000000     0.057600000000     0.685250000000    -0.079517   
C18      C      0.545800000000     0.390933333333     0.185250000000    -0.079517   
C18      C      0.545800000000     0.390933333333     0.685250000000    -0.079517   
C18      C      0.545800000000     0.724266666667     0.185250000000    -0.079517   
C18      C      0.545800000000     0.724266666667     0.685250000000    -0.079517   
C18      C      0.879133333333     0.057600000000     0.185250000000    -0.079517   
C18      C      0.879133333333     0.057600000000     0.685250000000    -0.079517   
C18      C      0.879133333333     0.390933333333     0.185250000000    -0.079517   
C18      C      0.879133333333     0.390933333333     0.685250000000    -0.079517   
C18      C      0.879133333333     0.724266666667     0.185250000000    -0.079517   
C18      C      0.879133333333     0.724266666667     0.685250000000    -0.079517   
C19      C      0.326366666667     0.212966666667     0.070850000000    -0.215193   
C19      C      0.326366666667     0.212966666667     0.570850000000    -0.215193   
C19      C      0.326366666667     0.546300000000     0.070850000000    -0.215193   
C19      C      0.326366666667     0.546300000000     0.570850000000    -0.215193   
C19      C      0.326366666667     0.879633333333     0.070850000000    -0.215193   
C19      C      0.326366666667     0.879633333333     0.570850000000    -0.215193   
C19      C      0.659700000000     0.212966666667     0.070850000000    -0.215193   
C19      C      0.659700000000     0.212966666667     0.570850000000    -0.215193   
C19      C      0.659700000000     0.546300000000     0.070850000000    -0.215193   
C19      C      0.659700000000     0.546300000000     0.570850000000    -0.215193   
C19      C      0.659700000000     0.879633333333     0.070850000000    -0.215193   
C19      C      0.659700000000     0.879633333333     0.570850000000    -0.215193   
C19      C      0.993033333333     0.212966666667     0.070850000000    -0.215193   
C19      C      0.993033333333     0.212966666667     0.570850000000    -0.215193   
C19      C      0.993033333333     0.546300000000     0.070850000000    -0.215193   
C19      C      0.993033333333     0.546300000000     0.570850000000    -0.215193   
C19      C      0.993033333333     0.879633333333     0.070850000000    -0.215193   
C19      C      0.993033333333     0.879633333333     0.570850000000    -0.215193   
C20      C      0.034466666667     0.197733333333     0.051650000000     0.580015   
C20      C      0.034466666667     0.197733333333     0.551650000000     0.580015   
C20      C      0.034466666667     0.531066666667     0.051650000000     0.580015   
C20      C      0.034466666667     0.531066666667     0.551650000000     0.580015   
C20      C      0.034466666667     0.864400000000     0.051650000000     0.580015   
C20      C      0.034466666667     0.864400000000     0.551650000000     0.580015   
C20      C      0.367800000000     0.197733333333     0.051650000000     0.580015   
C20      C      0.367800000000     0.197733333333     0.551650000000     0.580015   
C20      C      0.367800000000     0.531066666667     0.051650000000     0.580015   
C20      C      0.367800000000     0.531066666667     0.551650000000     0.580015   
C20      C      0.367800000000     0.864400000000     0.051650000000     0.580015   
C20      C      0.367800000000     0.864400000000     0.551650000000     0.580015   
C20      C      0.701133333333     0.197733333333     0.051650000000     0.580015   
C20      C      0.701133333333     0.197733333333     0.551650000000     0.580015   
C20      C      0.701133333333     0.531066666667     0.051650000000     0.580015   
C20      C      0.701133333333     0.531066666667     0.551650000000     0.580015   
C20      C      0.701133333333     0.864400000000     0.051650000000     0.580015   
C20      C      0.701133333333     0.864400000000     0.551650000000     0.580015   
C21      C      0.070533333333     0.197733333333     0.061700000000     0.580051   
C21      C      0.070533333333     0.197733333333     0.561700000000     0.580051   
C21      C      0.070533333333     0.531066666667     0.061700000000     0.580051   
C21      C      0.070533333333     0.531066666667     0.561700000000     0.580051   
C21      C      0.070533333333     0.864400000000     0.061700000000     0.580051   
C21      C      0.070533333333     0.864400000000     0.561700000000     0.580051   
C21      C      0.403866666667     0.197733333333     0.061700000000     0.580051   
C21      C      0.403866666667     0.197733333333     0.561700000000     0.580051   
C21      C      0.403866666667     0.531066666667     0.061700000000     0.580051   
C21      C      0.403866666667     0.531066666667     0.561700000000     0.580051   
C21      C      0.403866666667     0.864400000000     0.061700000000     0.580051   
C21      C      0.403866666667     0.864400000000     0.561700000000     0.580051   
C21      C      0.737200000000     0.197733333333     0.061700000000     0.580051   
C21      C      0.737200000000     0.197733333333     0.561700000000     0.580051   
C21      C      0.737200000000     0.531066666667     0.061700000000     0.580051   
C21      C      0.737200000000     0.531066666667     0.561700000000     0.580051   
C21      C      0.737200000000     0.864400000000     0.061700000000     0.580051   
C21      C      0.737200000000     0.864400000000     0.561700000000     0.580051   
C22      C      0.323933333333     0.120833333333     0.213100000000     0.10189    
C22      C      0.323933333333     0.120833333333     0.713100000000     0.10189    
C22      C      0.323933333333     0.454166666667     0.213100000000     0.10189    
C22      C      0.323933333333     0.454166666667     0.713100000000     0.10189    
C22      C      0.323933333333     0.787500000000     0.213100000000     0.10189    
C22      C      0.323933333333     0.787500000000     0.713100000000     0.10189    
C22      C      0.657266666667     0.120833333333     0.213100000000     0.10189    
C22      C      0.657266666667     0.120833333333     0.713100000000     0.10189    
C22      C      0.657266666667     0.454166666667     0.213100000000     0.10189    
C22      C      0.657266666667     0.454166666667     0.713100000000     0.10189    
C22      C      0.657266666667     0.787500000000     0.213100000000     0.10189    
C22      C      0.657266666667     0.787500000000     0.713100000000     0.10189    
C22      C      0.990600000000     0.120833333333     0.213100000000     0.10189    
C22      C      0.990600000000     0.120833333333     0.713100000000     0.10189    
C22      C      0.990600000000     0.454166666667     0.213100000000     0.10189    
C22      C      0.990600000000     0.454166666667     0.713100000000     0.10189    
C22      C      0.990600000000     0.787500000000     0.213100000000     0.10189    
C22      C      0.990600000000     0.787500000000     0.713100000000     0.10189    
C23      C      0.267666666667     0.093500000000     0.236000000000    -0.191698   
C23      C      0.267666666667     0.093500000000     0.736000000000    -0.191698   
C23      C      0.267666666667     0.426833333333     0.236000000000    -0.191698   
C23      C      0.267666666667     0.426833333333     0.736000000000    -0.191698   
C23      C      0.267666666667     0.760166666667     0.236000000000    -0.191698   
C23      C      0.267666666667     0.760166666667     0.736000000000    -0.191698   
C23      C      0.601000000000     0.093500000000     0.236000000000    -0.191698   
C23      C      0.601000000000     0.093500000000     0.736000000000    -0.191698   
C23      C      0.601000000000     0.426833333333     0.236000000000    -0.191698   
C23      C      0.601000000000     0.426833333333     0.736000000000    -0.191698   
C23      C      0.601000000000     0.760166666667     0.236000000000    -0.191698   
C23      C      0.601000000000     0.760166666667     0.736000000000    -0.191698   
C23      C      0.934333333333     0.093500000000     0.236000000000    -0.191698   
C23      C      0.934333333333     0.093500000000     0.736000000000    -0.191698   
C23      C      0.934333333333     0.426833333333     0.236000000000    -0.191698   
C23      C      0.934333333333     0.426833333333     0.736000000000    -0.191698   
C23      C      0.934333333333     0.760166666667     0.236000000000    -0.191698   
C23      C      0.934333333333     0.760166666667     0.736000000000    -0.191698   
C24      C      0.308466666667     0.092733333333     0.236550000000     0.112129   
C24      C      0.308466666667     0.092733333333     0.736550000000     0.112129   
C24      C      0.308466666667     0.426066666667     0.236550000000     0.112129   
C24      C      0.308466666667     0.426066666667     0.736550000000     0.112129   
C24      C      0.308466666667     0.759400000000     0.236550000000     0.112129   
C24      C      0.308466666667     0.759400000000     0.736550000000     0.112129   
C24      C      0.641800000000     0.092733333333     0.236550000000     0.112129   
C24      C      0.641800000000     0.092733333333     0.736550000000     0.112129   
C24      C      0.641800000000     0.426066666667     0.236550000000     0.112129   
C24      C      0.641800000000     0.426066666667     0.736550000000     0.112129   
C24      C      0.641800000000     0.759400000000     0.236550000000     0.112129   
C24      C      0.641800000000     0.759400000000     0.736550000000     0.112129   
C24      C      0.975133333333     0.092733333333     0.236550000000     0.112129   
C24      C      0.975133333333     0.092733333333     0.736550000000     0.112129   
C24      C      0.975133333333     0.426066666667     0.236550000000     0.112129   
C24      C      0.975133333333     0.426066666667     0.736550000000     0.112129   
C24      C      0.975133333333     0.759400000000     0.236550000000     0.112129   
C24      C      0.975133333333     0.759400000000     0.736550000000     0.112129   
C25      C      0.275533333333     0.121033333333     0.064950000000     0.0993     
C25      C      0.275533333333     0.121033333333     0.564950000000     0.0993     
C25      C      0.275533333333     0.454366666667     0.064950000000     0.0993     
C25      C      0.275533333333     0.454366666667     0.564950000000     0.0993     
C25      C      0.275533333333     0.787700000000     0.064950000000     0.0993     
C25      C      0.275533333333     0.787700000000     0.564950000000     0.0993     
C25      C      0.608866666667     0.121033333333     0.064950000000     0.0993     
C25      C      0.608866666667     0.121033333333     0.564950000000     0.0993     
C25      C      0.608866666667     0.454366666667     0.064950000000     0.0993     
C25      C      0.608866666667     0.454366666667     0.564950000000     0.0993     
C25      C      0.608866666667     0.787700000000     0.064950000000     0.0993     
C25      C      0.608866666667     0.787700000000     0.564950000000     0.0993     
C25      C      0.942200000000     0.121033333333     0.064950000000     0.0993     
C25      C      0.942200000000     0.121033333333     0.564950000000     0.0993     
C25      C      0.942200000000     0.454366666667     0.064950000000     0.0993     
C25      C      0.942200000000     0.454366666667     0.564950000000     0.0993     
C25      C      0.942200000000     0.787700000000     0.064950000000     0.0993     
C25      C      0.942200000000     0.787700000000     0.564950000000     0.0993     
C26      C      0.314633333333     0.101700000000     0.083100000000    -0.215195   
C26      C      0.314633333333     0.101700000000     0.583100000000    -0.215195   
C26      C      0.314633333333     0.435033333333     0.083100000000    -0.215195   
C26      C      0.314633333333     0.435033333333     0.583100000000    -0.215195   
C26      C      0.314633333333     0.768366666667     0.083100000000    -0.215195   
C26      C      0.314633333333     0.768366666667     0.583100000000    -0.215195   
C26      C      0.647966666667     0.101700000000     0.083100000000    -0.215195   
C26      C      0.647966666667     0.101700000000     0.583100000000    -0.215195   
C26      C      0.647966666667     0.435033333333     0.083100000000    -0.215195   
C26      C      0.647966666667     0.435033333333     0.583100000000    -0.215195   
C26      C      0.647966666667     0.768366666667     0.083100000000    -0.215195   
C26      C      0.647966666667     0.768366666667     0.583100000000    -0.215195   
C26      C      0.981300000000     0.101700000000     0.083100000000    -0.215195   
C26      C      0.981300000000     0.101700000000     0.583100000000    -0.215195   
C26      C      0.981300000000     0.435033333333     0.083100000000    -0.215195   
C26      C      0.981300000000     0.435033333333     0.583100000000    -0.215195   
C26      C      0.981300000000     0.768366666667     0.083100000000    -0.215195   
C26      C      0.981300000000     0.768366666667     0.583100000000    -0.215195   
C27      C      0.310900000000     0.088866666667     0.117000000000     0.580013   
C27      C      0.310900000000     0.088866666667     0.617000000000     0.580013   
C27      C      0.310900000000     0.422200000000     0.117000000000     0.580013   
C27      C      0.310900000000     0.422200000000     0.617000000000     0.580013   
C27      C      0.310900000000     0.755533333333     0.117000000000     0.580013   
C27      C      0.310900000000     0.755533333333     0.617000000000     0.580013   
C27      C      0.644233333333     0.088866666667     0.117000000000     0.580013   
C27      C      0.644233333333     0.088866666667     0.617000000000     0.580013   
C27      C      0.644233333333     0.422200000000     0.117000000000     0.580013   
C27      C      0.644233333333     0.422200000000     0.617000000000     0.580013   
C27      C      0.644233333333     0.755533333333     0.117000000000     0.580013   
C27      C      0.644233333333     0.755533333333     0.617000000000     0.580013   
C27      C      0.977566666667     0.088866666667     0.117000000000     0.580013   
C27      C      0.977566666667     0.088866666667     0.617000000000     0.580013   
C27      C      0.977566666667     0.422200000000     0.117000000000     0.580013   
C27      C      0.977566666667     0.422200000000     0.617000000000     0.580013   
C27      C      0.977566666667     0.755533333333     0.117000000000     0.580013   
C27      C      0.977566666667     0.755533333333     0.617000000000     0.580013   
C28      C      0.014633333333     0.071066666667     0.133150000000     0.580053   
C28      C      0.014633333333     0.071066666667     0.633150000000     0.580053   
C28      C      0.014633333333     0.404400000000     0.133150000000     0.580053   
C28      C      0.014633333333     0.404400000000     0.633150000000     0.580053   
C28      C      0.014633333333     0.737733333333     0.133150000000     0.580053   
C28      C      0.014633333333     0.737733333333     0.633150000000     0.580053   
C28      C      0.347966666667     0.071066666667     0.133150000000     0.580053   
C28      C      0.347966666667     0.071066666667     0.633150000000     0.580053   
C28      C      0.347966666667     0.404400000000     0.133150000000     0.580053   
C28      C      0.347966666667     0.404400000000     0.633150000000     0.580053   
C28      C      0.347966666667     0.737733333333     0.133150000000     0.580053   
C28      C      0.347966666667     0.737733333333     0.633150000000     0.580053   
C28      C      0.681300000000     0.071066666667     0.133150000000     0.580053   
C28      C      0.681300000000     0.071066666667     0.633150000000     0.580053   
C28      C      0.681300000000     0.404400000000     0.133150000000     0.580053   
C28      C      0.681300000000     0.404400000000     0.633150000000     0.580053   
C28      C      0.681300000000     0.737733333333     0.133150000000     0.580053   
C28      C      0.681300000000     0.737733333333     0.633150000000     0.580053   
C29      C      0.054966666667     0.067300000000     0.115300000000    -0.059158   
C29      C      0.054966666667     0.067300000000     0.615300000000    -0.059158   
C29      C      0.054966666667     0.400633333333     0.115300000000    -0.059158   
C29      C      0.054966666667     0.400633333333     0.615300000000    -0.059158   
C29      C      0.054966666667     0.733966666667     0.115300000000    -0.059158   
C29      C      0.054966666667     0.733966666667     0.615300000000    -0.059158   
C29      C      0.388300000000     0.067300000000     0.115300000000    -0.059158   
C29      C      0.388300000000     0.067300000000     0.615300000000    -0.059158   
C29      C      0.388300000000     0.400633333333     0.115300000000    -0.059158   
C29      C      0.388300000000     0.400633333333     0.615300000000    -0.059158   
C29      C      0.388300000000     0.733966666667     0.115300000000    -0.059158   
C29      C      0.388300000000     0.733966666667     0.615300000000    -0.059158   
C29      C      0.721633333333     0.067300000000     0.115300000000    -0.059158   
C29      C      0.721633333333     0.067300000000     0.615300000000    -0.059158   
C29      C      0.721633333333     0.400633333333     0.115300000000    -0.059158   
C29      C      0.721633333333     0.400633333333     0.615300000000    -0.059158   
C29      C      0.721633333333     0.733966666667     0.115300000000    -0.059158   
C29      C      0.721633333333     0.733966666667     0.615300000000    -0.059158   
C30      C      0.059000000000     0.080900000000     0.081850000000    -0.079909   
C30      C      0.059000000000     0.080900000000     0.581850000000    -0.079909   
C30      C      0.059000000000     0.414233333333     0.081850000000    -0.079909   
C30      C      0.059000000000     0.414233333333     0.581850000000    -0.079909   
C30      C      0.059000000000     0.747566666667     0.081850000000    -0.079909   
C30      C      0.059000000000     0.747566666667     0.581850000000    -0.079909   
C30      C      0.392333333333     0.080900000000     0.081850000000    -0.079909   
C30      C      0.392333333333     0.080900000000     0.581850000000    -0.079909   
C30      C      0.392333333333     0.414233333333     0.081850000000    -0.079909   
C30      C      0.392333333333     0.414233333333     0.581850000000    -0.079909   
C30      C      0.392333333333     0.747566666667     0.081850000000    -0.079909   
C30      C      0.392333333333     0.747566666667     0.581850000000    -0.079909   
C30      C      0.725666666667     0.080900000000     0.081850000000    -0.079909   
C30      C      0.725666666667     0.080900000000     0.581850000000    -0.079909   
C30      C      0.725666666667     0.414233333333     0.081850000000    -0.079909   
C30      C      0.725666666667     0.414233333333     0.581850000000    -0.079909   
C30      C      0.725666666667     0.747566666667     0.081850000000    -0.079909   
C30      C      0.725666666667     0.747566666667     0.581850000000    -0.079909   
C31      C      0.022366666667     0.097600000000     0.065500000000    -0.215914   
C31      C      0.022366666667     0.097600000000     0.565500000000    -0.215914   
C31      C      0.022366666667     0.430933333333     0.065500000000    -0.215914   
C31      C      0.022366666667     0.430933333333     0.565500000000    -0.215914   
C31      C      0.022366666667     0.764266666667     0.065500000000    -0.215914   
C31      C      0.022366666667     0.764266666667     0.565500000000    -0.215914   
C31      C      0.355700000000     0.097600000000     0.065500000000    -0.215914   
C31      C      0.355700000000     0.097600000000     0.565500000000    -0.215914   
C31      C      0.355700000000     0.430933333333     0.065500000000    -0.215914   
C31      C      0.355700000000     0.430933333333     0.565500000000    -0.215914   
C31      C      0.355700000000     0.764266666667     0.065500000000    -0.215914   
C31      C      0.355700000000     0.764266666667     0.565500000000    -0.215914   
C31      C      0.689033333333     0.097600000000     0.065500000000    -0.215914   
C31      C      0.689033333333     0.097600000000     0.565500000000    -0.215914   
C31      C      0.689033333333     0.430933333333     0.065500000000    -0.215914   
C31      C      0.689033333333     0.430933333333     0.565500000000    -0.215914   
C31      C      0.689033333333     0.764266666667     0.065500000000    -0.215914   
C31      C      0.689033333333     0.764266666667     0.565500000000    -0.215914   
C32      C      0.102966666667     0.309500000000     0.140300000000     0.277357   
C32      C      0.102966666667     0.309500000000     0.640300000000     0.277357   
C32      C      0.102966666667     0.642833333333     0.140300000000     0.277357   
C32      C      0.102966666667     0.642833333333     0.640300000000     0.277357   
C32      C      0.102966666667     0.976166666667     0.140300000000     0.277357   
C32      C      0.102966666667     0.976166666667     0.640300000000     0.277357   
C32      C      0.436300000000     0.309500000000     0.140300000000     0.277357   
C32      C      0.436300000000     0.309500000000     0.640300000000     0.277357   
C32      C      0.436300000000     0.642833333333     0.140300000000     0.277357   
C32      C      0.436300000000     0.642833333333     0.640300000000     0.277357   
C32      C      0.436300000000     0.976166666667     0.140300000000     0.277357   
C32      C      0.436300000000     0.976166666667     0.640300000000     0.277357   
C32      C      0.769633333333     0.309500000000     0.140300000000     0.277357   
C32      C      0.769633333333     0.309500000000     0.640300000000     0.277357   
C32      C      0.769633333333     0.642833333333     0.140300000000     0.277357   
C32      C      0.769633333333     0.642833333333     0.640300000000     0.277357   
C32      C      0.769633333333     0.976166666667     0.140300000000     0.277357   
C32      C      0.769633333333     0.976166666667     0.640300000000     0.277357   
C33      C      0.118900000000     0.268200000000     0.159000000000    -0.07952    
C33      C      0.118900000000     0.268200000000     0.659000000000    -0.07952    
C33      C      0.118900000000     0.601533333333     0.159000000000    -0.07952    
C33      C      0.118900000000     0.601533333333     0.659000000000    -0.07952    
C33      C      0.118900000000     0.934866666667     0.159000000000    -0.07952    
C33      C      0.118900000000     0.934866666667     0.659000000000    -0.07952    
C33      C      0.452233333333     0.268200000000     0.159000000000    -0.07952    
C33      C      0.452233333333     0.268200000000     0.659000000000    -0.07952    
C33      C      0.452233333333     0.601533333333     0.159000000000    -0.07952    
C33      C      0.452233333333     0.601533333333     0.659000000000    -0.07952    
C33      C      0.452233333333     0.934866666667     0.159000000000    -0.07952    
C33      C      0.452233333333     0.934866666667     0.659000000000    -0.07952    
C33      C      0.785566666667     0.268200000000     0.159000000000    -0.07952    
C33      C      0.785566666667     0.268200000000     0.659000000000    -0.07952    
C33      C      0.785566666667     0.601533333333     0.159000000000    -0.07952    
C33      C      0.785566666667     0.601533333333     0.659000000000    -0.07952    
C33      C      0.785566666667     0.934866666667     0.159000000000    -0.07952    
C33      C      0.785566666667     0.934866666667     0.659000000000    -0.07952    
C34      C      0.135766666667     0.262533333333     0.188100000000    -0.238884   
C34      C      0.135766666667     0.262533333333     0.688100000000    -0.238884   
C34      C      0.135766666667     0.595866666667     0.188100000000    -0.238884   
C34      C      0.135766666667     0.595866666667     0.688100000000    -0.238884   
C34      C      0.135766666667     0.929200000000     0.188100000000    -0.238884   
C34      C      0.135766666667     0.929200000000     0.688100000000    -0.238884   
C34      C      0.469100000000     0.262533333333     0.188100000000    -0.238884   
C34      C      0.469100000000     0.262533333333     0.688100000000    -0.238884   
C34      C      0.469100000000     0.595866666667     0.188100000000    -0.238884   
C34      C      0.469100000000     0.595866666667     0.688100000000    -0.238884   
C34      C      0.469100000000     0.929200000000     0.188100000000    -0.238884   
C34      C      0.469100000000     0.929200000000     0.688100000000    -0.238884   
C34      C      0.802433333333     0.262533333333     0.188100000000    -0.238884   
C34      C      0.802433333333     0.262533333333     0.688100000000    -0.238884   
C34      C      0.802433333333     0.595866666667     0.188100000000    -0.238884   
C34      C      0.802433333333     0.595866666667     0.688100000000    -0.238884   
C34      C      0.802433333333     0.929200000000     0.188100000000    -0.238884   
C34      C      0.802433333333     0.929200000000     0.688100000000    -0.238884   
C35      C      0.135433333333     0.299033333333     0.198200000000     0.276853   
C35      C      0.135433333333     0.299033333333     0.698200000000     0.276853   
C35      C      0.135433333333     0.632366666667     0.198200000000     0.276853   
C35      C      0.135433333333     0.632366666667     0.698200000000     0.276853   
C35      C      0.135433333333     0.965700000000     0.198200000000     0.276853   
C35      C      0.135433333333     0.965700000000     0.698200000000     0.276853   
C35      C      0.468766666667     0.299033333333     0.198200000000     0.276853   
C35      C      0.468766666667     0.299033333333     0.698200000000     0.276853   
C35      C      0.468766666667     0.632366666667     0.198200000000     0.276853   
C35      C      0.468766666667     0.632366666667     0.698200000000     0.276853   
C35      C      0.468766666667     0.965700000000     0.198200000000     0.276853   
C35      C      0.468766666667     0.965700000000     0.698200000000     0.276853   
C35      C      0.802100000000     0.299033333333     0.198200000000     0.276853   
C35      C      0.802100000000     0.299033333333     0.698200000000     0.276853   
C35      C      0.802100000000     0.632366666667     0.198200000000     0.276853   
C35      C      0.802100000000     0.632366666667     0.698200000000     0.276853   
C35      C      0.802100000000     0.965700000000     0.198200000000     0.276853   
C35      C      0.802100000000     0.965700000000     0.698200000000     0.276853   
C36      C      0.120200000000     0.006766666667     0.179300000000    -0.225212   
C36      C      0.120200000000     0.006766666667     0.679300000000    -0.225212   
C36      C      0.120200000000     0.340100000000     0.179300000000    -0.225212   
C36      C      0.120200000000     0.340100000000     0.679300000000    -0.225212   
C36      C      0.120200000000     0.673433333333     0.179300000000    -0.225212   
C36      C      0.120200000000     0.673433333333     0.679300000000    -0.225212   
C36      C      0.453533333333     0.006766666667     0.179300000000    -0.225212   
C36      C      0.453533333333     0.006766666667     0.679300000000    -0.225212   
C36      C      0.453533333333     0.340100000000     0.179300000000    -0.225212   
C36      C      0.453533333333     0.340100000000     0.679300000000    -0.225212   
C36      C      0.453533333333     0.673433333333     0.179300000000    -0.225212   
C36      C      0.453533333333     0.673433333333     0.679300000000    -0.225212   
C36      C      0.786866666667     0.006766666667     0.179300000000    -0.225212   
C36      C      0.786866666667     0.006766666667     0.679300000000    -0.225212   
C36      C      0.786866666667     0.340100000000     0.179300000000    -0.225212   
C36      C      0.786866666667     0.340100000000     0.679300000000    -0.225212   
C36      C      0.786866666667     0.673433333333     0.179300000000    -0.225212   
C36      C      0.786866666667     0.673433333333     0.679300000000    -0.225212   
C37      C      0.153900000000     0.217533333333     0.208450000000    -0.080086   
C37      C      0.153900000000     0.217533333333     0.708450000000    -0.080086   
C37      C      0.153900000000     0.550866666667     0.208450000000    -0.080086   
C37      C      0.153900000000     0.550866666667     0.708450000000    -0.080086   
C37      C      0.153900000000     0.884200000000     0.208450000000    -0.080086   
C37      C      0.153900000000     0.884200000000     0.708450000000    -0.080086   
C37      C      0.487233333333     0.217533333333     0.208450000000    -0.080086   
C37      C      0.487233333333     0.217533333333     0.708450000000    -0.080086   
C37      C      0.487233333333     0.550866666667     0.208450000000    -0.080086   
C37      C      0.487233333333     0.550866666667     0.708450000000    -0.080086   
C37      C      0.487233333333     0.884200000000     0.208450000000    -0.080086   
C37      C      0.487233333333     0.884200000000     0.708450000000    -0.080086   
C37      C      0.820566666667     0.217533333333     0.208450000000    -0.080086   
C37      C      0.820566666667     0.217533333333     0.708450000000    -0.080086   
C37      C      0.820566666667     0.550866666667     0.208450000000    -0.080086   
C37      C      0.820566666667     0.550866666667     0.708450000000    -0.080086   
C37      C      0.820566666667     0.884200000000     0.208450000000    -0.080086   
C37      C      0.820566666667     0.884200000000     0.708450000000    -0.080086   
C38      C      0.115766666667     0.179633333333     0.041750000000    -0.034849   
C38      C      0.115766666667     0.179633333333     0.541750000000    -0.034849   
C38      C      0.115766666667     0.512966666667     0.041750000000    -0.034849   
C38      C      0.115766666667     0.512966666667     0.541750000000    -0.034849   
C38      C      0.115766666667     0.846300000000     0.041750000000    -0.034849   
C38      C      0.115766666667     0.846300000000     0.541750000000    -0.034849   
C38      C      0.449100000000     0.179633333333     0.041750000000    -0.034849   
C38      C      0.449100000000     0.179633333333     0.541750000000    -0.034849   
C38      C      0.449100000000     0.512966666667     0.041750000000    -0.034849   
C38      C      0.449100000000     0.512966666667     0.541750000000    -0.034849   
C38      C      0.449100000000     0.846300000000     0.041750000000    -0.034849   
C38      C      0.449100000000     0.846300000000     0.541750000000    -0.034849   
C38      C      0.782433333333     0.179633333333     0.041750000000    -0.034849   
C38      C      0.782433333333     0.179633333333     0.541750000000    -0.034849   
C38      C      0.782433333333     0.512966666667     0.041750000000    -0.034849   
C38      C      0.782433333333     0.512966666667     0.541750000000    -0.034849   
C38      C      0.782433333333     0.846300000000     0.041750000000    -0.034849   
C38      C      0.782433333333     0.846300000000     0.541750000000    -0.034849   
C39      C      0.093500000000     0.267533333333     0.485850000000    -0.090487   
C39      C      0.093500000000     0.267533333333     0.985850000000    -0.090487   
C39      C      0.093500000000     0.600866666667     0.485850000000    -0.090487   
C39      C      0.093500000000     0.600866666667     0.985850000000    -0.090487   
C39      C      0.093500000000     0.934200000000     0.485850000000    -0.090487   
C39      C      0.093500000000     0.934200000000     0.985850000000    -0.090487   
C39      C      0.426833333333     0.267533333333     0.485850000000    -0.090487   
C39      C      0.426833333333     0.267533333333     0.985850000000    -0.090487   
C39      C      0.426833333333     0.600866666667     0.485850000000    -0.090487   
C39      C      0.426833333333     0.600866666667     0.985850000000    -0.090487   
C39      C      0.426833333333     0.934200000000     0.485850000000    -0.090487   
C39      C      0.426833333333     0.934200000000     0.985850000000    -0.090487   
C39      C      0.760166666667     0.267533333333     0.485850000000    -0.090487   
C39      C      0.760166666667     0.267533333333     0.985850000000    -0.090487   
C39      C      0.760166666667     0.600866666667     0.485850000000    -0.090487   
C39      C      0.760166666667     0.600866666667     0.985850000000    -0.090487   
C39      C      0.760166666667     0.934200000000     0.485850000000    -0.090487   
C39      C      0.760166666667     0.934200000000     0.985850000000    -0.090487   
C40      C      0.296500000000     0.147533333333     0.189500000000    -0.228558   
C40      C      0.296500000000     0.147533333333     0.689500000000    -0.228558   
C40      C      0.296500000000     0.480866666667     0.189500000000    -0.228558   
C40      C      0.296500000000     0.480866666667     0.689500000000    -0.228558   
C40      C      0.296500000000     0.814200000000     0.189500000000    -0.228558   
C40      C      0.296500000000     0.814200000000     0.689500000000    -0.228558   
C40      C      0.629833333333     0.147533333333     0.189500000000    -0.228558   
C40      C      0.629833333333     0.147533333333     0.689500000000    -0.228558   
C40      C      0.629833333333     0.480866666667     0.189500000000    -0.228558   
C40      C      0.629833333333     0.480866666667     0.689500000000    -0.228558   
C40      C      0.629833333333     0.814200000000     0.189500000000    -0.228558   
C40      C      0.629833333333     0.814200000000     0.689500000000    -0.228558   
C40      C      0.963166666667     0.147533333333     0.189500000000    -0.228558   
C40      C      0.963166666667     0.147533333333     0.689500000000    -0.228558   
C40      C      0.963166666667     0.480866666667     0.189500000000    -0.228558   
C40      C      0.963166666667     0.480866666667     0.689500000000    -0.228558   
C40      C      0.963166666667     0.814200000000     0.189500000000    -0.228558   
C40      C      0.963166666667     0.814200000000     0.689500000000    -0.228558   
C41      C      0.146566666667     0.256066666667     0.440750000000     0.542562   
C41      C      0.146566666667     0.256066666667     0.940750000000     0.542562   
C41      C      0.146566666667     0.589400000000     0.440750000000     0.542562   
C41      C      0.146566666667     0.589400000000     0.940750000000     0.542562   
C41      C      0.146566666667     0.922733333333     0.440750000000     0.542562   
C41      C      0.146566666667     0.922733333333     0.940750000000     0.542562   
C41      C      0.479900000000     0.256066666667     0.440750000000     0.542562   
C41      C      0.479900000000     0.256066666667     0.940750000000     0.542562   
C41      C      0.479900000000     0.589400000000     0.440750000000     0.542562   
C41      C      0.479900000000     0.589400000000     0.940750000000     0.542562   
C41      C      0.479900000000     0.922733333333     0.440750000000     0.542562   
C41      C      0.479900000000     0.922733333333     0.940750000000     0.542562   
C41      C      0.813233333333     0.256066666667     0.440750000000     0.542562   
C41      C      0.813233333333     0.256066666667     0.940750000000     0.542562   
C41      C      0.813233333333     0.589400000000     0.440750000000     0.542562   
C41      C      0.813233333333     0.589400000000     0.940750000000     0.542562   
C41      C      0.813233333333     0.922733333333     0.440750000000     0.542562   
C41      C      0.813233333333     0.922733333333     0.940750000000     0.542562   
C42      C      0.235533333333     0.198633333333     0.313350000000    -0.084357   
C42      C      0.235533333333     0.198633333333     0.813350000000    -0.084357   
C42      C      0.235533333333     0.531966666667     0.313350000000    -0.084357   
C42      C      0.235533333333     0.531966666667     0.813350000000    -0.084357   
C42      C      0.235533333333     0.865300000000     0.313350000000    -0.084357   
C42      C      0.235533333333     0.865300000000     0.813350000000    -0.084357   
C42      C      0.568866666667     0.198633333333     0.313350000000    -0.084357   
C42      C      0.568866666667     0.198633333333     0.813350000000    -0.084357   
C42      C      0.568866666667     0.531966666667     0.313350000000    -0.084357   
C42      C      0.568866666667     0.531966666667     0.813350000000    -0.084357   
C42      C      0.568866666667     0.865300000000     0.313350000000    -0.084357   
C42      C      0.568866666667     0.865300000000     0.813350000000    -0.084357   
C42      C      0.902200000000     0.198633333333     0.313350000000    -0.084357   
C42      C      0.902200000000     0.198633333333     0.813350000000    -0.084357   
C42      C      0.902200000000     0.531966666667     0.313350000000    -0.084357   
C42      C      0.902200000000     0.531966666667     0.813350000000    -0.084357   
C42      C      0.902200000000     0.865300000000     0.313350000000    -0.084357   
C42      C      0.902200000000     0.865300000000     0.813350000000    -0.084357   
C43      C      0.213133333333     0.326566666667     0.320700000000    -0.059572   
C43      C      0.213133333333     0.326566666667     0.820700000000    -0.059572   
C43      C      0.213133333333     0.659900000000     0.320700000000    -0.059572   
C43      C      0.213133333333     0.659900000000     0.820700000000    -0.059572   
C43      C      0.213133333333     0.993233333333     0.320700000000    -0.059572   
C43      C      0.213133333333     0.993233333333     0.820700000000    -0.059572   
C43      C      0.546466666667     0.326566666667     0.320700000000    -0.059572   
C43      C      0.546466666667     0.326566666667     0.820700000000    -0.059572   
C43      C      0.546466666667     0.659900000000     0.320700000000    -0.059572   
C43      C      0.546466666667     0.659900000000     0.820700000000    -0.059572   
C43      C      0.546466666667     0.993233333333     0.320700000000    -0.059572   
C43      C      0.546466666667     0.993233333333     0.820700000000    -0.059572   
C43      C      0.879800000000     0.326566666667     0.320700000000    -0.059572   
C43      C      0.879800000000     0.326566666667     0.820700000000    -0.059572   
C43      C      0.879800000000     0.659900000000     0.320700000000    -0.059572   
C43      C      0.879800000000     0.659900000000     0.820700000000    -0.059572   
C43      C      0.879800000000     0.993233333333     0.320700000000    -0.059572   
C43      C      0.879800000000     0.993233333333     0.820700000000    -0.059572   
C44      C      0.179433333333     0.115800000000     0.291550000000    -0.086351   
C44      C      0.179433333333     0.115800000000     0.791550000000    -0.086351   
C44      C      0.179433333333     0.449133333333     0.291550000000    -0.086351   
C44      C      0.179433333333     0.449133333333     0.791550000000    -0.086351   
C44      C      0.179433333333     0.782466666667     0.291550000000    -0.086351   
C44      C      0.179433333333     0.782466666667     0.791550000000    -0.086351   
C44      C      0.512766666667     0.115800000000     0.291550000000    -0.086351   
C44      C      0.512766666667     0.115800000000     0.791550000000    -0.086351   
C44      C      0.512766666667     0.449133333333     0.291550000000    -0.086351   
C44      C      0.512766666667     0.449133333333     0.791550000000    -0.086351   
C44      C      0.512766666667     0.782466666667     0.291550000000    -0.086351   
C44      C      0.512766666667     0.782466666667     0.791550000000    -0.086351   
C44      C      0.846100000000     0.115800000000     0.291550000000    -0.086351   
C44      C      0.846100000000     0.115800000000     0.791550000000    -0.086351   
C44      C      0.846100000000     0.449133333333     0.291550000000    -0.086351   
C44      C      0.846100000000     0.449133333333     0.791550000000    -0.086351   
C44      C      0.846100000000     0.782466666667     0.291550000000    -0.086351   
C44      C      0.846100000000     0.782466666667     0.791550000000    -0.086351   
C45      C      0.217566666667     0.153700000000     0.458250000000    -0.241847   
C45      C      0.217566666667     0.153700000000     0.958250000000    -0.241847   
C45      C      0.217566666667     0.487033333333     0.458250000000    -0.241847   
C45      C      0.217566666667     0.487033333333     0.958250000000    -0.241847   
C45      C      0.217566666667     0.820366666667     0.458250000000    -0.241847   
C45      C      0.217566666667     0.820366666667     0.958250000000    -0.241847   
C45      C      0.550900000000     0.153700000000     0.458250000000    -0.241847   
C45      C      0.550900000000     0.153700000000     0.958250000000    -0.241847   
C45      C      0.550900000000     0.487033333333     0.458250000000    -0.241847   
C45      C      0.550900000000     0.487033333333     0.958250000000    -0.241847   
C45      C      0.550900000000     0.820366666667     0.458250000000    -0.241847   
C45      C      0.550900000000     0.820366666667     0.958250000000    -0.241847   
C45      C      0.884233333333     0.153700000000     0.458250000000    -0.241847   
C45      C      0.884233333333     0.153700000000     0.958250000000    -0.241847   
C45      C      0.884233333333     0.487033333333     0.458250000000    -0.241847   
C45      C      0.884233333333     0.487033333333     0.958250000000    -0.241847   
C45      C      0.884233333333     0.820366666667     0.458250000000    -0.241847   
C45      C      0.884233333333     0.820366666667     0.958250000000    -0.241847   
C46      C      0.262800000000     0.135600000000     0.438300000000    -0.187565   
C46      C      0.262800000000     0.135600000000     0.938300000000    -0.187565   
C46      C      0.262800000000     0.468933333333     0.438300000000    -0.187565   
C46      C      0.262800000000     0.468933333333     0.938300000000    -0.187565   
C46      C      0.262800000000     0.802266666667     0.438300000000    -0.187565   
C46      C      0.262800000000     0.802266666667     0.938300000000    -0.187565   
C46      C      0.596133333333     0.135600000000     0.438300000000    -0.187565   
C46      C      0.596133333333     0.135600000000     0.938300000000    -0.187565   
C46      C      0.596133333333     0.468933333333     0.438300000000    -0.187565   
C46      C      0.596133333333     0.468933333333     0.938300000000    -0.187565   
C46      C      0.596133333333     0.802266666667     0.438300000000    -0.187565   
C46      C      0.596133333333     0.802266666667     0.938300000000    -0.187565   
C46      C      0.929466666667     0.135600000000     0.438300000000    -0.187565   
C46      C      0.929466666667     0.135600000000     0.938300000000    -0.187565   
C46      C      0.929466666667     0.468933333333     0.438300000000    -0.187565   
C46      C      0.929466666667     0.468933333333     0.938300000000    -0.187565   
C46      C      0.929466666667     0.802266666667     0.438300000000    -0.187565   
C46      C      0.929466666667     0.802266666667     0.938300000000    -0.187565   
C47      C      0.298866666667     0.135600000000     0.448350000000     0.106383   
C47      C      0.298866666667     0.135600000000     0.948350000000     0.106383   
C47      C      0.298866666667     0.468933333333     0.448350000000     0.106383   
C47      C      0.298866666667     0.468933333333     0.948350000000     0.106383   
C47      C      0.298866666667     0.802266666667     0.448350000000     0.106383   
C47      C      0.298866666667     0.802266666667     0.948350000000     0.106383   
C47      C      0.632200000000     0.135600000000     0.448350000000     0.106383   
C47      C      0.632200000000     0.135600000000     0.948350000000     0.106383   
C47      C      0.632200000000     0.468933333333     0.448350000000     0.106383   
C47      C      0.632200000000     0.468933333333     0.948350000000     0.106383   
C47      C      0.632200000000     0.802266666667     0.448350000000     0.106383   
C47      C      0.632200000000     0.802266666667     0.948350000000     0.106383   
C47      C      0.965533333333     0.135600000000     0.448350000000     0.106383   
C47      C      0.965533333333     0.135600000000     0.948350000000     0.106383   
C47      C      0.965533333333     0.468933333333     0.448350000000     0.106383   
C47      C      0.965533333333     0.468933333333     0.948350000000     0.106383   
C47      C      0.965533333333     0.802266666667     0.448350000000     0.106383   
C47      C      0.965533333333     0.802266666667     0.948350000000     0.106383   
C48      C      0.006966666667     0.120366666667     0.429150000000    -0.199129   
C48      C      0.006966666667     0.120366666667     0.929150000000    -0.199129   
C48      C      0.006966666667     0.453700000000     0.429150000000    -0.199129   
C48      C      0.006966666667     0.453700000000     0.929150000000    -0.199129   
C48      C      0.006966666667     0.787033333333     0.429150000000    -0.199129   
C48      C      0.006966666667     0.787033333333     0.929150000000    -0.199129   
C48      C      0.340300000000     0.120366666667     0.429150000000    -0.199129   
C48      C      0.340300000000     0.120366666667     0.929150000000    -0.199129   
C48      C      0.340300000000     0.453700000000     0.429150000000    -0.199129   
C48      C      0.340300000000     0.453700000000     0.929150000000    -0.199129   
C48      C      0.340300000000     0.787033333333     0.429150000000    -0.199129   
C48      C      0.340300000000     0.787033333333     0.929150000000    -0.199129   
C48      C      0.673633333333     0.120366666667     0.429150000000    -0.199129   
C48      C      0.673633333333     0.120366666667     0.929150000000    -0.199129   
C48      C      0.673633333333     0.453700000000     0.429150000000    -0.199129   
C48      C      0.673633333333     0.453700000000     0.929150000000    -0.199129   
C48      C      0.673633333333     0.787033333333     0.429150000000    -0.199129   
C48      C      0.673633333333     0.787033333333     0.929150000000    -0.199129   
C49      C      0.011400000000     0.104433333333     0.400400000000     0.098317   
C49      C      0.011400000000     0.104433333333     0.900400000000     0.098317   
C49      C      0.011400000000     0.437766666667     0.400400000000     0.098317   
C49      C      0.011400000000     0.437766666667     0.900400000000     0.098317   
C49      C      0.011400000000     0.771100000000     0.400400000000     0.098317   
C49      C      0.011400000000     0.771100000000     0.900400000000     0.098317   
C49      C      0.344733333333     0.104433333333     0.400400000000     0.098317   
C49      C      0.344733333333     0.104433333333     0.900400000000     0.098317   
C49      C      0.344733333333     0.437766666667     0.400400000000     0.098317   
C49      C      0.344733333333     0.437766666667     0.900400000000     0.098317   
C49      C      0.344733333333     0.771100000000     0.400400000000     0.098317   
C49      C      0.344733333333     0.771100000000     0.900400000000     0.098317   
C49      C      0.678066666667     0.104433333333     0.400400000000     0.098317   
C49      C      0.678066666667     0.104433333333     0.900400000000     0.098317   
C49      C      0.678066666667     0.437766666667     0.400400000000     0.098317   
C49      C      0.678066666667     0.437766666667     0.900400000000     0.098317   
C49      C      0.678066666667     0.771100000000     0.400400000000     0.098317   
C49      C      0.678066666667     0.771100000000     0.900400000000     0.098317   
C50      C      0.197900000000     0.034300000000     0.301800000000     0.11002    
C50      C      0.197900000000     0.034300000000     0.801800000000     0.11002    
C50      C      0.197900000000     0.367633333333     0.301800000000     0.11002    
C50      C      0.197900000000     0.367633333333     0.801800000000     0.11002    
C50      C      0.197900000000     0.700966666667     0.301800000000     0.11002    
C50      C      0.197900000000     0.700966666667     0.801800000000     0.11002    
C50      C      0.531233333333     0.034300000000     0.301800000000     0.11002    
C50      C      0.531233333333     0.034300000000     0.801800000000     0.11002    
C50      C      0.531233333333     0.367633333333     0.301800000000     0.11002    
C50      C      0.531233333333     0.367633333333     0.801800000000     0.11002    
C50      C      0.531233333333     0.700966666667     0.301800000000     0.11002    
C50      C      0.531233333333     0.700966666667     0.801800000000     0.11002    
C50      C      0.864566666667     0.034300000000     0.301800000000     0.11002    
C50      C      0.864566666667     0.034300000000     0.801800000000     0.11002    
C50      C      0.864566666667     0.367633333333     0.301800000000     0.11002    
C50      C      0.864566666667     0.367633333333     0.801800000000     0.11002    
C50      C      0.864566666667     0.700966666667     0.301800000000     0.11002    
C50      C      0.864566666667     0.700966666667     0.801800000000     0.11002    
C51      C      0.309533333333     0.103166666667     0.390500000000    -0.191711   
C51      C      0.309533333333     0.103166666667     0.890500000000    -0.191711   
C51      C      0.309533333333     0.436500000000     0.390500000000    -0.191711   
C51      C      0.309533333333     0.436500000000     0.890500000000    -0.191711   
C51      C      0.309533333333     0.769833333333     0.390500000000    -0.191711   
C51      C      0.309533333333     0.769833333333     0.890500000000    -0.191711   
C51      C      0.642866666667     0.103166666667     0.390500000000    -0.191711   
C51      C      0.642866666667     0.103166666667     0.890500000000    -0.191711   
C51      C      0.642866666667     0.436500000000     0.390500000000    -0.191711   
C51      C      0.642866666667     0.436500000000     0.890500000000    -0.191711   
C51      C      0.642866666667     0.769833333333     0.390500000000    -0.191711   
C51      C      0.642866666667     0.769833333333     0.890500000000    -0.191711   
C51      C      0.976200000000     0.103166666667     0.390500000000    -0.191711   
C51      C      0.976200000000     0.103166666667     0.890500000000    -0.191711   
C51      C      0.976200000000     0.436500000000     0.390500000000    -0.191711   
C51      C      0.976200000000     0.436500000000     0.890500000000    -0.191711   
C51      C      0.976200000000     0.769833333333     0.390500000000    -0.191711   
C51      C      0.976200000000     0.769833333333     0.890500000000    -0.191711   
C52      C      0.067433333333     0.055000000000     0.365200000000     0.102137   
C52      C      0.067433333333     0.055000000000     0.865200000000     0.102137   
C52      C      0.067433333333     0.388333333333     0.365200000000     0.102137   
C52      C      0.067433333333     0.388333333333     0.865200000000     0.102137   
C52      C      0.067433333333     0.721666666667     0.365200000000     0.102137   
C52      C      0.067433333333     0.721666666667     0.865200000000     0.102137   
C52      C      0.400766666667     0.055000000000     0.365200000000     0.102137   
C52      C      0.400766666667     0.055000000000     0.865200000000     0.102137   
C52      C      0.400766666667     0.388333333333     0.365200000000     0.102137   
C52      C      0.400766666667     0.388333333333     0.865200000000     0.102137   
C52      C      0.400766666667     0.721666666667     0.365200000000     0.102137   
C52      C      0.400766666667     0.721666666667     0.865200000000     0.102137   
C52      C      0.734100000000     0.055000000000     0.365200000000     0.102137   
C52      C      0.734100000000     0.055000000000     0.865200000000     0.102137   
C52      C      0.734100000000     0.388333333333     0.365200000000     0.102137   
C52      C      0.734100000000     0.388333333333     0.865200000000     0.102137   
C52      C      0.734100000000     0.721666666667     0.365200000000     0.102137   
C52      C      0.734100000000     0.721666666667     0.865200000000     0.102137   
C53      C      0.071000000000     0.014366666667     0.383250000000     0.1019     
C53      C      0.071000000000     0.014366666667     0.883250000000     0.1019     
C53      C      0.071000000000     0.347700000000     0.383250000000     0.1019     
C53      C      0.071000000000     0.347700000000     0.883250000000     0.1019     
C53      C      0.071000000000     0.681033333333     0.383250000000     0.1019     
C53      C      0.071000000000     0.681033333333     0.883250000000     0.1019     
C53      C      0.404333333333     0.014366666667     0.383250000000     0.1019     
C53      C      0.404333333333     0.014366666667     0.883250000000     0.1019     
C53      C      0.404333333333     0.347700000000     0.383250000000     0.1019     
C53      C      0.404333333333     0.347700000000     0.883250000000     0.1019     
C53      C      0.404333333333     0.681033333333     0.383250000000     0.1019     
C53      C      0.404333333333     0.681033333333     0.883250000000     0.1019     
C53      C      0.737666666667     0.014366666667     0.383250000000     0.1019     
C53      C      0.737666666667     0.014366666667     0.883250000000     0.1019     
C53      C      0.737666666667     0.347700000000     0.383250000000     0.1019     
C53      C      0.737666666667     0.347700000000     0.883250000000     0.1019     
C53      C      0.737666666667     0.681033333333     0.383250000000     0.1019     
C53      C      0.737666666667     0.681033333333     0.883250000000     0.1019     
C54      C      0.088700000000     0.311066666667     0.367050000000    -0.18943    
C54      C      0.088700000000     0.311066666667     0.867050000000    -0.18943    
C54      C      0.088700000000     0.644400000000     0.367050000000    -0.18943    
C54      C      0.088700000000     0.644400000000     0.867050000000    -0.18943    
C54      C      0.088700000000     0.977733333333     0.367050000000    -0.18943    
C54      C      0.088700000000     0.977733333333     0.867050000000    -0.18943    
C54      C      0.422033333333     0.311066666667     0.367050000000    -0.18943    
C54      C      0.422033333333     0.311066666667     0.867050000000    -0.18943    
C54      C      0.422033333333     0.644400000000     0.367050000000    -0.18943    
C54      C      0.422033333333     0.644400000000     0.867050000000    -0.18943    
C54      C      0.422033333333     0.977733333333     0.367050000000    -0.18943    
C54      C      0.422033333333     0.977733333333     0.867050000000    -0.18943    
C54      C      0.755366666667     0.311066666667     0.367050000000    -0.18943    
C54      C      0.755366666667     0.311066666667     0.867050000000    -0.18943    
C54      C      0.755366666667     0.644400000000     0.367050000000    -0.18943    
C54      C      0.755366666667     0.644400000000     0.867050000000    -0.18943    
C54      C      0.755366666667     0.977733333333     0.367050000000    -0.18943    
C54      C      0.755366666667     0.977733333333     0.867050000000    -0.18943    
C55      C      0.101700000000     0.314900000000     0.333000000000     0.542463   
C55      C      0.101700000000     0.314900000000     0.833000000000     0.542463   
C55      C      0.101700000000     0.648233333333     0.333000000000     0.542463   
C55      C      0.101700000000     0.648233333333     0.833000000000     0.542463   
C55      C      0.101700000000     0.981566666667     0.333000000000     0.542463   
C55      C      0.101700000000     0.981566666667     0.833000000000     0.542463   
C55      C      0.435033333333     0.314900000000     0.333000000000     0.542463   
C55      C      0.435033333333     0.314900000000     0.833000000000     0.542463   
C55      C      0.435033333333     0.648233333333     0.333000000000     0.542463   
C55      C      0.435033333333     0.648233333333     0.833000000000     0.542463   
C55      C      0.435033333333     0.981566666667     0.333000000000     0.542463   
C55      C      0.435033333333     0.981566666667     0.833000000000     0.542463   
C55      C      0.768366666667     0.314900000000     0.333000000000     0.542463   
C55      C      0.768366666667     0.314900000000     0.833000000000     0.542463   
C55      C      0.768366666667     0.648233333333     0.333000000000     0.542463   
C55      C      0.768366666667     0.648233333333     0.833000000000     0.542463   
C55      C      0.768366666667     0.981566666667     0.333000000000     0.542463   
C55      C      0.768366666667     0.981566666667     0.833000000000     0.542463   
C56      C      0.097600000000     0.022400000000     0.315500000000    -0.032752   
C56      C      0.097600000000     0.022400000000     0.815500000000    -0.032752   
C56      C      0.097600000000     0.355733333333     0.315500000000    -0.032752   
C56      C      0.097600000000     0.355733333333     0.815500000000    -0.032752   
C56      C      0.097600000000     0.689066666667     0.315500000000    -0.032752   
C56      C      0.097600000000     0.689066666667     0.815500000000    -0.032752   
C56      C      0.430933333333     0.022400000000     0.315500000000    -0.032752   
C56      C      0.430933333333     0.022400000000     0.815500000000    -0.032752   
C56      C      0.430933333333     0.355733333333     0.315500000000    -0.032752   
C56      C      0.430933333333     0.355733333333     0.815500000000    -0.032752   
C56      C      0.430933333333     0.689066666667     0.315500000000    -0.032752   
C56      C      0.430933333333     0.689066666667     0.815500000000    -0.032752   
C56      C      0.764266666667     0.022400000000     0.315500000000    -0.032752   
C56      C      0.764266666667     0.022400000000     0.815500000000    -0.032752   
C56      C      0.764266666667     0.355733333333     0.315500000000    -0.032752   
C56      C      0.764266666667     0.355733333333     0.815500000000    -0.032752   
C56      C      0.764266666667     0.689066666667     0.315500000000    -0.032752   
C56      C      0.764266666667     0.689066666667     0.815500000000    -0.032752   
C57      C      0.080900000000     0.059133333333     0.331850000000    -0.080064   
C57      C      0.080900000000     0.059133333333     0.831850000000    -0.080064   
C57      C      0.080900000000     0.392466666667     0.331850000000    -0.080064   
C57      C      0.080900000000     0.392466666667     0.831850000000    -0.080064   
C57      C      0.080900000000     0.725800000000     0.331850000000    -0.080064   
C57      C      0.080900000000     0.725800000000     0.831850000000    -0.080064   
C57      C      0.414233333333     0.059133333333     0.331850000000    -0.080064   
C57      C      0.414233333333     0.059133333333     0.831850000000    -0.080064   
C57      C      0.414233333333     0.392466666667     0.331850000000    -0.080064   
C57      C      0.414233333333     0.392466666667     0.831850000000    -0.080064   
C57      C      0.414233333333     0.725800000000     0.331850000000    -0.080064   
C57      C      0.414233333333     0.725800000000     0.831850000000    -0.080064   
C57      C      0.747566666667     0.059133333333     0.331850000000    -0.080064   
C57      C      0.747566666667     0.059133333333     0.831850000000    -0.080064   
C57      C      0.747566666667     0.392466666667     0.331850000000    -0.080064   
C57      C      0.747566666667     0.392466666667     0.831850000000    -0.080064   
C57      C      0.747566666667     0.725800000000     0.331850000000    -0.080064   
C57      C      0.747566666667     0.725800000000     0.831850000000    -0.080064   
C58      C      0.120866666667     0.275733333333     0.314750000000    -0.227519   
C58      C      0.120866666667     0.275733333333     0.814750000000    -0.227519   
C58      C      0.120866666667     0.609066666667     0.314750000000    -0.227519   
C58      C      0.120866666667     0.609066666667     0.814750000000    -0.227519   
C58      C      0.120866666667     0.942400000000     0.314750000000    -0.227519   
C58      C      0.120866666667     0.942400000000     0.814750000000    -0.227519   
C58      C      0.454200000000     0.275733333333     0.314750000000    -0.227519   
C58      C      0.454200000000     0.275733333333     0.814750000000    -0.227519   
C58      C      0.454200000000     0.609066666667     0.314750000000    -0.227519   
C58      C      0.454200000000     0.609066666667     0.814750000000    -0.227519   
C58      C      0.454200000000     0.942400000000     0.314750000000    -0.227519   
C58      C      0.454200000000     0.942400000000     0.814750000000    -0.227519   
C58      C      0.787533333333     0.275733333333     0.314750000000    -0.227519   
C58      C      0.787533333333     0.275733333333     0.814750000000    -0.227519   
C58      C      0.787533333333     0.609066666667     0.314750000000    -0.227519   
C58      C      0.787533333333     0.609066666667     0.814750000000    -0.227519   
C58      C      0.787533333333     0.942400000000     0.314750000000    -0.227519   
C58      C      0.787533333333     0.942400000000     0.814750000000    -0.227519   
C59      C      0.268400000000     0.119200000000     0.408950000000     0.276909   
C59      C      0.268400000000     0.119200000000     0.908950000000     0.276909   
C59      C      0.268400000000     0.452533333333     0.408950000000     0.276909   
C59      C      0.268400000000     0.452533333333     0.908950000000     0.276909   
C59      C      0.268400000000     0.785866666667     0.408950000000     0.276909   
C59      C      0.268400000000     0.785866666667     0.908950000000     0.276909   
C59      C      0.601733333333     0.119200000000     0.408950000000     0.276909   
C59      C      0.601733333333     0.119200000000     0.908950000000     0.276909   
C59      C      0.601733333333     0.452533333333     0.408950000000     0.276909   
C59      C      0.601733333333     0.452533333333     0.908950000000     0.276909   
C59      C      0.601733333333     0.785866666667     0.408950000000     0.276909   
C59      C      0.601733333333     0.785866666667     0.908950000000     0.276909   
C59      C      0.935066666667     0.119200000000     0.408950000000     0.276909   
C59      C      0.935066666667     0.119200000000     0.908950000000     0.276909   
C59      C      0.935066666667     0.452533333333     0.408950000000     0.276909   
C59      C      0.935066666667     0.452533333333     0.908950000000     0.276909   
C59      C      0.935066666667     0.785866666667     0.408950000000     0.276909   
C59      C      0.935066666667     0.785866666667     0.908950000000     0.276909   
C60      C      0.197566666667     0.070800000000     0.311900000000    -0.226963   
C60      C      0.197566666667     0.070800000000     0.811900000000    -0.226963   
C60      C      0.197566666667     0.404133333333     0.311900000000    -0.226963   
C60      C      0.197566666667     0.404133333333     0.811900000000    -0.226963   
C60      C      0.197566666667     0.737466666667     0.311900000000    -0.226963   
C60      C      0.197566666667     0.737466666667     0.811900000000    -0.226963   
C60      C      0.530900000000     0.070800000000     0.311900000000    -0.226963   
C60      C      0.530900000000     0.070800000000     0.811900000000    -0.226963   
C60      C      0.530900000000     0.404133333333     0.311900000000    -0.226963   
C60      C      0.530900000000     0.404133333333     0.811900000000    -0.226963   
C60      C      0.530900000000     0.737466666667     0.311900000000    -0.226963   
C60      C      0.530900000000     0.737466666667     0.811900000000    -0.226963   
C60      C      0.864233333333     0.070800000000     0.311900000000    -0.226963   
C60      C      0.864233333333     0.070800000000     0.811900000000    -0.226963   
C60      C      0.864233333333     0.404133333333     0.311900000000    -0.226963   
C60      C      0.864233333333     0.404133333333     0.811900000000    -0.226963   
C60      C      0.864233333333     0.737466666667     0.311900000000    -0.226963   
C60      C      0.864233333333     0.737466666667     0.811900000000    -0.226963   
C61      C      0.214433333333     0.065133333333     0.341000000000    -0.0915     
C61      C      0.214433333333     0.065133333333     0.841000000000    -0.0915     
C61      C      0.214433333333     0.398466666667     0.341000000000    -0.0915     
C61      C      0.214433333333     0.398466666667     0.841000000000    -0.0915     
C61      C      0.214433333333     0.731800000000     0.341000000000    -0.0915     
C61      C      0.214433333333     0.731800000000     0.841000000000    -0.0915     
C61      C      0.547766666667     0.065133333333     0.341000000000    -0.0915     
C61      C      0.547766666667     0.065133333333     0.841000000000    -0.0915     
C61      C      0.547766666667     0.398466666667     0.341000000000    -0.0915     
C61      C      0.547766666667     0.398466666667     0.841000000000    -0.0915     
C61      C      0.547766666667     0.731800000000     0.341000000000    -0.0915     
C61      C      0.547766666667     0.731800000000     0.841000000000    -0.0915     
C61      C      0.881100000000     0.065133333333     0.341000000000    -0.0915     
C61      C      0.881100000000     0.065133333333     0.841000000000    -0.0915     
C61      C      0.881100000000     0.398466666667     0.341000000000    -0.0915     
C61      C      0.881100000000     0.398466666667     0.841000000000    -0.0915     
C61      C      0.881100000000     0.731800000000     0.341000000000    -0.0915     
C61      C      0.881100000000     0.731800000000     0.841000000000    -0.0915     
C62      C      0.230366666667     0.023833333333     0.359700000000     0.275996   
C62      C      0.230366666667     0.023833333333     0.859700000000     0.275996   
C62      C      0.230366666667     0.357166666667     0.359700000000     0.275996   
C62      C      0.230366666667     0.357166666667     0.859700000000     0.275996   
C62      C      0.230366666667     0.690500000000     0.359700000000     0.275996   
C62      C      0.230366666667     0.690500000000     0.859700000000     0.275996   
C62      C      0.563700000000     0.023833333333     0.359700000000     0.275996   
C62      C      0.563700000000     0.023833333333     0.859700000000     0.275996   
C62      C      0.563700000000     0.357166666667     0.359700000000     0.275996   
C62      C      0.563700000000     0.357166666667     0.859700000000     0.275996   
C62      C      0.563700000000     0.690500000000     0.359700000000     0.275996   
C62      C      0.563700000000     0.690500000000     0.859700000000     0.275996   
C62      C      0.897033333333     0.023833333333     0.359700000000     0.275996   
C62      C      0.897033333333     0.023833333333     0.859700000000     0.275996   
C62      C      0.897033333333     0.357166666667     0.359700000000     0.275996   
C62      C      0.897033333333     0.357166666667     0.859700000000     0.275996   
C62      C      0.897033333333     0.690500000000     0.359700000000     0.275996   
C62      C      0.897033333333     0.690500000000     0.859700000000     0.275996   
C63      C      0.275200000000     0.198800000000     0.314950000000    -0.193175   
C63      C      0.275200000000     0.198800000000     0.814950000000    -0.193175   
C63      C      0.275200000000     0.532133333333     0.314950000000    -0.193175   
C63      C      0.275200000000     0.532133333333     0.814950000000    -0.193175   
C63      C      0.275200000000     0.865466666667     0.314950000000    -0.193175   
C63      C      0.275200000000     0.865466666667     0.814950000000    -0.193175   
C63      C      0.608533333333     0.198800000000     0.314950000000    -0.193175   
C63      C      0.608533333333     0.198800000000     0.814950000000    -0.193175   
C63      C      0.608533333333     0.532133333333     0.314950000000    -0.193175   
C63      C      0.608533333333     0.532133333333     0.814950000000    -0.193175   
C63      C      0.608533333333     0.865466666667     0.314950000000    -0.193175   
C63      C      0.608533333333     0.865466666667     0.814950000000    -0.193175   
C63      C      0.941866666667     0.198800000000     0.314950000000    -0.193175   
C63      C      0.941866666667     0.198800000000     0.814950000000    -0.193175   
C63      C      0.941866666667     0.532133333333     0.314950000000    -0.193175   
C63      C      0.941866666667     0.532133333333     0.814950000000    -0.193175   
C63      C      0.941866666667     0.865466666667     0.314950000000    -0.193175   
C63      C      0.941866666667     0.865466666667     0.814950000000    -0.193175   
C64      C      0.299500000000     0.211400000000     0.286650000000     0.098323   
C64      C      0.299500000000     0.211400000000     0.786650000000     0.098323   
C64      C      0.299500000000     0.544733333333     0.286650000000     0.098323   
C64      C      0.299500000000     0.544733333333     0.786650000000     0.098323   
C64      C      0.299500000000     0.878066666667     0.286650000000     0.098323   
C64      C      0.299500000000     0.878066666667     0.786650000000     0.098323   
C64      C      0.632833333333     0.211400000000     0.286650000000     0.098323   
C64      C      0.632833333333     0.211400000000     0.786650000000     0.098323   
C64      C      0.632833333333     0.544733333333     0.286650000000     0.098323   
C64      C      0.632833333333     0.544733333333     0.786650000000     0.098323   
C64      C      0.632833333333     0.878066666667     0.286650000000     0.098323   
C64      C      0.632833333333     0.878066666667     0.786650000000     0.098323   
C64      C      0.966166666667     0.211400000000     0.286650000000     0.098323   
C64      C      0.966166666667     0.211400000000     0.786650000000     0.098323   
C64      C      0.966166666667     0.544733333333     0.286650000000     0.098323   
C64      C      0.966166666667     0.544733333333     0.786650000000     0.098323   
C64      C      0.966166666667     0.878066666667     0.286650000000     0.098323   
C64      C      0.966166666667     0.878066666667     0.786650000000     0.098323   
C65      C      0.280533333333     0.223900000000     0.258050000000     0.110039   
C65      C      0.280533333333     0.223900000000     0.758050000000     0.110039   
C65      C      0.280533333333     0.557233333333     0.258050000000     0.110039   
C65      C      0.280533333333     0.557233333333     0.758050000000     0.110039   
C65      C      0.280533333333     0.890566666667     0.258050000000     0.110039   
C65      C      0.280533333333     0.890566666667     0.758050000000     0.110039   
C65      C      0.613866666667     0.223900000000     0.258050000000     0.110039   
C65      C      0.613866666667     0.223900000000     0.758050000000     0.110039   
C65      C      0.613866666667     0.557233333333     0.258050000000     0.110039   
C65      C      0.613866666667     0.557233333333     0.758050000000     0.110039   
C65      C      0.613866666667     0.890566666667     0.258050000000     0.110039   
C65      C      0.613866666667     0.890566666667     0.758050000000     0.110039   
C65      C      0.947200000000     0.223900000000     0.258050000000     0.110039   
C65      C      0.947200000000     0.223900000000     0.758050000000     0.110039   
C65      C      0.947200000000     0.557233333333     0.258050000000     0.110039   
C65      C      0.947200000000     0.557233333333     0.758050000000     0.110039   
C65      C      0.947200000000     0.890566666667     0.258050000000     0.110039   
C65      C      0.947200000000     0.890566666667     0.758050000000     0.110039   
C66      C      0.240266666667     0.223166666667     0.258450000000     0.106389   
C66      C      0.240266666667     0.223166666667     0.758450000000     0.106389   
C66      C      0.240266666667     0.556500000000     0.258450000000     0.106389   
C66      C      0.240266666667     0.556500000000     0.758450000000     0.106389   
C66      C      0.240266666667     0.889833333333     0.258450000000     0.106389   
C66      C      0.240266666667     0.889833333333     0.758450000000     0.106389   
C66      C      0.573600000000     0.223166666667     0.258450000000     0.106389   
C66      C      0.573600000000     0.223166666667     0.758450000000     0.106389   
C66      C      0.573600000000     0.556500000000     0.258450000000     0.106389   
C66      C      0.573600000000     0.556500000000     0.758450000000     0.106389   
C66      C      0.573600000000     0.889833333333     0.258450000000     0.106389   
C66      C      0.573600000000     0.889833333333     0.758450000000     0.106389   
C66      C      0.906933333333     0.223166666667     0.258450000000     0.106389   
C66      C      0.906933333333     0.223166666667     0.758450000000     0.106389   
C66      C      0.906933333333     0.556500000000     0.258450000000     0.106389   
C66      C      0.906933333333     0.556500000000     0.758450000000     0.106389   
C66      C      0.906933333333     0.889833333333     0.258450000000     0.106389   
C66      C      0.906933333333     0.889833333333     0.758450000000     0.106389   
C67      C      0.077366666667     0.186966666667     0.309150000000     0.097169   
C67      C      0.077366666667     0.186966666667     0.809150000000     0.097169   
C67      C      0.077366666667     0.520300000000     0.309150000000     0.097169   
C67      C      0.077366666667     0.520300000000     0.809150000000     0.097169   
C67      C      0.077366666667     0.853633333333     0.309150000000     0.097169   
C67      C      0.077366666667     0.853633333333     0.809150000000     0.097169   
C67      C      0.410700000000     0.186966666667     0.309150000000     0.097169   
C67      C      0.410700000000     0.186966666667     0.809150000000     0.097169   
C67      C      0.410700000000     0.520300000000     0.309150000000     0.097169   
C67      C      0.410700000000     0.520300000000     0.809150000000     0.097169   
C67      C      0.410700000000     0.853633333333     0.309150000000     0.097169   
C67      C      0.410700000000     0.853633333333     0.809150000000     0.097169   
C67      C      0.744033333333     0.186966666667     0.309150000000     0.097169   
C67      C      0.744033333333     0.186966666667     0.809150000000     0.097169   
C67      C      0.744033333333     0.520300000000     0.309150000000     0.097169   
C67      C      0.744033333333     0.520300000000     0.809150000000     0.097169   
C67      C      0.744033333333     0.853633333333     0.309150000000     0.097169   
C67      C      0.744033333333     0.853633333333     0.809150000000     0.097169   
C68      C      0.036833333333     0.185800000000     0.310500000000    -0.200295   
C68      C      0.036833333333     0.185800000000     0.810500000000    -0.200295   
C68      C      0.036833333333     0.519133333333     0.310500000000    -0.200295   
C68      C      0.036833333333     0.519133333333     0.810500000000    -0.200295   
C68      C      0.036833333333     0.852466666667     0.310500000000    -0.200295   
C68      C      0.036833333333     0.852466666667     0.810500000000    -0.200295   
C68      C      0.370166666667     0.185800000000     0.310500000000    -0.200295   
C68      C      0.370166666667     0.185800000000     0.810500000000    -0.200295   
C68      C      0.370166666667     0.519133333333     0.310500000000    -0.200295   
C68      C      0.370166666667     0.519133333333     0.810500000000    -0.200295   
C68      C      0.370166666667     0.852466666667     0.310500000000    -0.200295   
C68      C      0.370166666667     0.852466666667     0.810500000000    -0.200295   
C68      C      0.703500000000     0.185800000000     0.310500000000    -0.200295   
C68      C      0.703500000000     0.185800000000     0.810500000000    -0.200295   
C68      C      0.703500000000     0.519133333333     0.310500000000    -0.200295   
C68      C      0.703500000000     0.519133333333     0.810500000000    -0.200295   
C68      C      0.703500000000     0.852466666667     0.310500000000    -0.200295   
C68      C      0.703500000000     0.852466666667     0.810500000000    -0.200295   
C69      C      0.009400000000     0.212500000000     0.286900000000     0.107544   
C69      C      0.009400000000     0.212500000000     0.786900000000     0.107544   
C69      C      0.009400000000     0.545833333333     0.286900000000     0.107544   
C69      C      0.009400000000     0.545833333333     0.786900000000     0.107544   
C69      C      0.009400000000     0.879166666667     0.286900000000     0.107544   
C69      C      0.009400000000     0.879166666667     0.786900000000     0.107544   
C69      C      0.342733333333     0.212500000000     0.286900000000     0.107544   
C69      C      0.342733333333     0.212500000000     0.786900000000     0.107544   
C69      C      0.342733333333     0.545833333333     0.286900000000     0.107544   
C69      C      0.342733333333     0.545833333333     0.786900000000     0.107544   
C69      C      0.342733333333     0.879166666667     0.286900000000     0.107544   
C69      C      0.342733333333     0.879166666667     0.786900000000     0.107544   
C69      C      0.676066666667     0.212500000000     0.286900000000     0.107544   
C69      C      0.676066666667     0.212500000000     0.786900000000     0.107544   
C69      C      0.676066666667     0.545833333333     0.286900000000     0.107544   
C69      C      0.676066666667     0.545833333333     0.786900000000     0.107544   
C69      C      0.676066666667     0.879166666667     0.286900000000     0.107544   
C69      C      0.676066666667     0.879166666667     0.786900000000     0.107544   
C70      C      0.065666666667     0.239833333333     0.264000000000    -0.191958   
C70      C      0.065666666667     0.239833333333     0.764000000000    -0.191958   
C70      C      0.065666666667     0.573166666667     0.264000000000    -0.191958   
C70      C      0.065666666667     0.573166666667     0.764000000000    -0.191958   
C70      C      0.065666666667     0.906500000000     0.264000000000    -0.191958   
C70      C      0.065666666667     0.906500000000     0.764000000000    -0.191958   
C70      C      0.399000000000     0.239833333333     0.264000000000    -0.191958   
C70      C      0.399000000000     0.239833333333     0.764000000000    -0.191958   
C70      C      0.399000000000     0.573166666667     0.264000000000    -0.191958   
C70      C      0.399000000000     0.573166666667     0.764000000000    -0.191958   
C70      C      0.399000000000     0.906500000000     0.264000000000    -0.191958   
C70      C      0.399000000000     0.906500000000     0.764000000000    -0.191958   
C70      C      0.732333333333     0.239833333333     0.264000000000    -0.191958   
C70      C      0.732333333333     0.239833333333     0.764000000000    -0.191958   
C70      C      0.732333333333     0.573166666667     0.264000000000    -0.191958   
C70      C      0.732333333333     0.573166666667     0.764000000000    -0.191958   
C70      C      0.732333333333     0.906500000000     0.264000000000    -0.191958   
C70      C      0.732333333333     0.906500000000     0.764000000000    -0.191958   
C71      C      0.024866666667     0.240600000000     0.263450000000     0.103257   
C71      C      0.024866666667     0.240600000000     0.763450000000     0.103257   
C71      C      0.024866666667     0.573933333333     0.263450000000     0.103257   
C71      C      0.024866666667     0.573933333333     0.763450000000     0.103257   
C71      C      0.024866666667     0.907266666667     0.263450000000     0.103257   
C71      C      0.024866666667     0.907266666667     0.763450000000     0.103257   
C71      C      0.358200000000     0.240600000000     0.263450000000     0.103257   
C71      C      0.358200000000     0.240600000000     0.763450000000     0.103257   
C71      C      0.358200000000     0.573933333333     0.263450000000     0.103257   
C71      C      0.358200000000     0.573933333333     0.763450000000     0.103257   
C71      C      0.358200000000     0.907266666667     0.263450000000     0.103257   
C71      C      0.358200000000     0.907266666667     0.763450000000     0.103257   
C71      C      0.691533333333     0.240600000000     0.263450000000     0.103257   
C71      C      0.691533333333     0.240600000000     0.763450000000     0.103257   
C71      C      0.691533333333     0.573933333333     0.263450000000     0.103257   
C71      C      0.691533333333     0.573933333333     0.763450000000     0.103257   
C71      C      0.691533333333     0.907266666667     0.263450000000     0.103257   
C71      C      0.691533333333     0.907266666667     0.763450000000     0.103257   
C72      C      0.057800000000     0.212300000000     0.435050000000     0.102741   
C72      C      0.057800000000     0.212300000000     0.935050000000     0.102741   
C72      C      0.057800000000     0.545633333333     0.435050000000     0.102741   
C72      C      0.057800000000     0.545633333333     0.935050000000     0.102741   
C72      C      0.057800000000     0.878966666667     0.435050000000     0.102741   
C72      C      0.057800000000     0.878966666667     0.935050000000     0.102741   
C72      C      0.391133333333     0.212300000000     0.435050000000     0.102741   
C72      C      0.391133333333     0.212300000000     0.935050000000     0.102741   
C72      C      0.391133333333     0.545633333333     0.435050000000     0.102741   
C72      C      0.391133333333     0.545633333333     0.935050000000     0.102741   
C72      C      0.391133333333     0.878966666667     0.435050000000     0.102741   
C72      C      0.391133333333     0.878966666667     0.935050000000     0.102741   
C72      C      0.724466666667     0.212300000000     0.435050000000     0.102741   
C72      C      0.724466666667     0.212300000000     0.935050000000     0.102741   
C72      C      0.724466666667     0.545633333333     0.435050000000     0.102741   
C72      C      0.724466666667     0.545633333333     0.935050000000     0.102741   
C72      C      0.724466666667     0.878966666667     0.435050000000     0.102741   
C72      C      0.724466666667     0.878966666667     0.935050000000     0.102741   
C73      C      0.018700000000     0.231633333333     0.416900000000    -0.199109   
C73      C      0.018700000000     0.231633333333     0.916900000000    -0.199109   
C73      C      0.018700000000     0.564966666667     0.416900000000    -0.199109   
C73      C      0.018700000000     0.564966666667     0.916900000000    -0.199109   
C73      C      0.018700000000     0.898300000000     0.416900000000    -0.199109   
C73      C      0.018700000000     0.898300000000     0.916900000000    -0.199109   
C73      C      0.352033333333     0.231633333333     0.416900000000    -0.199109   
C73      C      0.352033333333     0.231633333333     0.916900000000    -0.199109   
C73      C      0.352033333333     0.564966666667     0.416900000000    -0.199109   
C73      C      0.352033333333     0.564966666667     0.916900000000    -0.199109   
C73      C      0.352033333333     0.898300000000     0.416900000000    -0.199109   
C73      C      0.352033333333     0.898300000000     0.916900000000    -0.199109   
C73      C      0.685366666667     0.231633333333     0.416900000000    -0.199109   
C73      C      0.685366666667     0.231633333333     0.916900000000    -0.199109   
C73      C      0.685366666667     0.564966666667     0.416900000000    -0.199109   
C73      C      0.685366666667     0.564966666667     0.916900000000    -0.199109   
C73      C      0.685366666667     0.898300000000     0.416900000000    -0.199109   
C73      C      0.685366666667     0.898300000000     0.916900000000    -0.199109   
C74      C      0.022433333333     0.244466666667     0.383000000000     0.101856   
C74      C      0.022433333333     0.244466666667     0.883000000000     0.101856   
C74      C      0.022433333333     0.577800000000     0.383000000000     0.101856   
C74      C      0.022433333333     0.577800000000     0.883000000000     0.101856   
C74      C      0.022433333333     0.911133333333     0.383000000000     0.101856   
C74      C      0.022433333333     0.911133333333     0.883000000000     0.101856   
C74      C      0.355766666667     0.244466666667     0.383000000000     0.101856   
C74      C      0.355766666667     0.244466666667     0.883000000000     0.101856   
C74      C      0.355766666667     0.577800000000     0.383000000000     0.101856   
C74      C      0.355766666667     0.577800000000     0.883000000000     0.101856   
C74      C      0.355766666667     0.911133333333     0.383000000000     0.101856   
C74      C      0.355766666667     0.911133333333     0.883000000000     0.101856   
C74      C      0.689100000000     0.244466666667     0.383000000000     0.101856   
C74      C      0.689100000000     0.244466666667     0.883000000000     0.101856   
C74      C      0.689100000000     0.577800000000     0.383000000000     0.101856   
C74      C      0.689100000000     0.577800000000     0.883000000000     0.101856   
C74      C      0.689100000000     0.911133333333     0.383000000000     0.101856   
C74      C      0.689100000000     0.911133333333     0.883000000000     0.101856   
C75      C      0.318700000000     0.262266666667     0.366850000000     0.11211    
C75      C      0.318700000000     0.262266666667     0.866850000000     0.11211    
C75      C      0.318700000000     0.595600000000     0.366850000000     0.11211    
C75      C      0.318700000000     0.595600000000     0.866850000000     0.11211    
C75      C      0.318700000000     0.928933333333     0.366850000000     0.11211    
C75      C      0.318700000000     0.928933333333     0.866850000000     0.11211    
C75      C      0.652033333333     0.262266666667     0.366850000000     0.11211    
C75      C      0.652033333333     0.262266666667     0.866850000000     0.11211    
C75      C      0.652033333333     0.595600000000     0.366850000000     0.11211    
C75      C      0.652033333333     0.595600000000     0.866850000000     0.11211    
C75      C      0.652033333333     0.928933333333     0.366850000000     0.11211    
C75      C      0.652033333333     0.928933333333     0.866850000000     0.11211    
C75      C      0.985366666667     0.262266666667     0.366850000000     0.11211    
C75      C      0.985366666667     0.262266666667     0.866850000000     0.11211    
C75      C      0.985366666667     0.595600000000     0.366850000000     0.11211    
C75      C      0.985366666667     0.595600000000     0.866850000000     0.11211    
C75      C      0.985366666667     0.928933333333     0.366850000000     0.11211    
C75      C      0.985366666667     0.928933333333     0.866850000000     0.11211    
C76      C      0.278366666667     0.266033333333     0.384700000000    -0.193199   
C76      C      0.278366666667     0.266033333333     0.884700000000    -0.193199   
C76      C      0.278366666667     0.599366666667     0.384700000000    -0.193199   
C76      C      0.278366666667     0.599366666667     0.884700000000    -0.193199   
C76      C      0.278366666667     0.932700000000     0.384700000000    -0.193199   
C76      C      0.278366666667     0.932700000000     0.884700000000    -0.193199   
C76      C      0.611700000000     0.266033333333     0.384700000000    -0.193199   
C76      C      0.611700000000     0.266033333333     0.884700000000    -0.193199   
C76      C      0.611700000000     0.599366666667     0.384700000000    -0.193199   
C76      C      0.611700000000     0.599366666667     0.884700000000    -0.193199   
C76      C      0.611700000000     0.932700000000     0.384700000000    -0.193199   
C76      C      0.611700000000     0.932700000000     0.884700000000    -0.193199   
C76      C      0.945033333333     0.266033333333     0.384700000000    -0.193199   
C76      C      0.945033333333     0.266033333333     0.884700000000    -0.193199   
C76      C      0.945033333333     0.599366666667     0.384700000000    -0.193199   
C76      C      0.945033333333     0.599366666667     0.884700000000    -0.193199   
C76      C      0.945033333333     0.932700000000     0.384700000000    -0.193199   
C76      C      0.945033333333     0.932700000000     0.884700000000    -0.193199   
C77      C      0.274333333333     0.252433333333     0.418150000000     0.099312   
C77      C      0.274333333333     0.252433333333     0.918150000000     0.099312   
C77      C      0.274333333333     0.585766666667     0.418150000000     0.099312   
C77      C      0.274333333333     0.585766666667     0.918150000000     0.099312   
C77      C      0.274333333333     0.919100000000     0.418150000000     0.099312   
C77      C      0.274333333333     0.919100000000     0.918150000000     0.099312   
C77      C      0.607666666667     0.252433333333     0.418150000000     0.099312   
C77      C      0.607666666667     0.252433333333     0.918150000000     0.099312   
C77      C      0.607666666667     0.585766666667     0.418150000000     0.099312   
C77      C      0.607666666667     0.585766666667     0.918150000000     0.099312   
C77      C      0.607666666667     0.919100000000     0.418150000000     0.099312   
C77      C      0.607666666667     0.919100000000     0.918150000000     0.099312   
C77      C      0.941000000000     0.252433333333     0.418150000000     0.099312   
C77      C      0.941000000000     0.252433333333     0.918150000000     0.099312   
C77      C      0.941000000000     0.585766666667     0.418150000000     0.099312   
C77      C      0.941000000000     0.585766666667     0.918150000000     0.099312   
C77      C      0.941000000000     0.919100000000     0.418150000000     0.099312   
C77      C      0.941000000000     0.919100000000     0.918150000000     0.099312   
C78      C      0.310966666667     0.235733333333     0.434500000000    -0.187549   
C78      C      0.310966666667     0.235733333333     0.934500000000    -0.187549   
C78      C      0.310966666667     0.569066666667     0.434500000000    -0.187549   
C78      C      0.310966666667     0.569066666667     0.934500000000    -0.187549   
C78      C      0.310966666667     0.902400000000     0.434500000000    -0.187549   
C78      C      0.310966666667     0.902400000000     0.934500000000    -0.187549   
C78      C      0.644300000000     0.235733333333     0.434500000000    -0.187549   
C78      C      0.644300000000     0.235733333333     0.934500000000    -0.187549   
C78      C      0.644300000000     0.569066666667     0.434500000000    -0.187549   
C78      C      0.644300000000     0.569066666667     0.934500000000    -0.187549   
C78      C      0.644300000000     0.902400000000     0.434500000000    -0.187549   
C78      C      0.644300000000     0.902400000000     0.934500000000    -0.187549   
C78      C      0.977633333333     0.235733333333     0.434500000000    -0.187549   
C78      C      0.977633333333     0.235733333333     0.934500000000    -0.187549   
C78      C      0.977633333333     0.569066666667     0.434500000000    -0.187549   
C78      C      0.977633333333     0.569066666667     0.934500000000    -0.187549   
C78      C      0.977633333333     0.902400000000     0.434500000000    -0.187549   
C78      C      0.977633333333     0.902400000000     0.934500000000    -0.187549   
C79      C      0.229300000000     0.321900000000     0.349500000000    -0.191395   
C79      C      0.229300000000     0.321900000000     0.849500000000    -0.191395   
C79      C      0.229300000000     0.655233333333     0.349500000000    -0.191395   
C79      C      0.229300000000     0.655233333333     0.849500000000    -0.191395   
C79      C      0.229300000000     0.988566666667     0.349500000000    -0.191395   
C79      C      0.229300000000     0.988566666667     0.849500000000    -0.191395   
C79      C      0.562633333333     0.321900000000     0.349500000000    -0.191395   
C79      C      0.562633333333     0.321900000000     0.849500000000    -0.191395   
C79      C      0.562633333333     0.655233333333     0.349500000000    -0.191395   
C79      C      0.562633333333     0.655233333333     0.849500000000    -0.191395   
C79      C      0.562633333333     0.988566666667     0.349500000000    -0.191395   
C79      C      0.562633333333     0.988566666667     0.849500000000    -0.191395   
C79      C      0.895966666667     0.321900000000     0.349500000000    -0.191395   
C79      C      0.895966666667     0.321900000000     0.849500000000    -0.191395   
C79      C      0.895966666667     0.655233333333     0.349500000000    -0.191395   
C79      C      0.895966666667     0.655233333333     0.849500000000    -0.191395   
C79      C      0.895966666667     0.988566666667     0.349500000000    -0.191395   
C79      C      0.895966666667     0.988566666667     0.849500000000    -0.191395   
C80      C      0.147633333333     0.296666666667     0.439500000000     0.124762   
C80      C      0.147633333333     0.296666666667     0.939500000000     0.124762   
C80      C      0.147633333333     0.630000000000     0.439500000000     0.124762   
C80      C      0.147633333333     0.630000000000     0.939500000000     0.124762   
C80      C      0.147633333333     0.963333333333     0.439500000000     0.124762   
C80      C      0.147633333333     0.963333333333     0.939500000000     0.124762   
C80      C      0.480966666667     0.296666666667     0.439500000000     0.124762   
C80      C      0.480966666667     0.296666666667     0.939500000000     0.124762   
C80      C      0.480966666667     0.630000000000     0.439500000000     0.124762   
C80      C      0.480966666667     0.630000000000     0.939500000000     0.124762   
C80      C      0.480966666667     0.963333333333     0.439500000000     0.124762   
C80      C      0.480966666667     0.963333333333     0.939500000000     0.124762   
C80      C      0.814300000000     0.296666666667     0.439500000000     0.124762   
C80      C      0.814300000000     0.296666666667     0.939500000000     0.124762   
C80      C      0.814300000000     0.630000000000     0.439500000000     0.124762   
C80      C      0.814300000000     0.630000000000     0.939500000000     0.124762   
C80      C      0.814300000000     0.963333333333     0.439500000000     0.124762   
C80      C      0.814300000000     0.963333333333     0.939500000000     0.124762   
C81      C      0.093066666667     0.110166666667     0.241550000000     0.113498   
C81      C      0.093066666667     0.110166666667     0.741550000000     0.113498   
C81      C      0.093066666667     0.443500000000     0.241550000000     0.113498   
C81      C      0.093066666667     0.443500000000     0.741550000000     0.113498   
C81      C      0.093066666667     0.776833333333     0.241550000000     0.113498   
C81      C      0.093066666667     0.776833333333     0.741550000000     0.113498   
C81      C      0.426400000000     0.110166666667     0.241550000000     0.113498   
C81      C      0.426400000000     0.110166666667     0.741550000000     0.113498   
C81      C      0.426400000000     0.443500000000     0.241550000000     0.113498   
C81      C      0.426400000000     0.443500000000     0.741550000000     0.113498   
C81      C      0.426400000000     0.776833333333     0.241550000000     0.113498   
C81      C      0.426400000000     0.776833333333     0.741550000000     0.113498   
C81      C      0.759733333333     0.110166666667     0.241550000000     0.113498   
C81      C      0.759733333333     0.110166666667     0.741550000000     0.113498   
C81      C      0.759733333333     0.443500000000     0.241550000000     0.113498   
C81      C      0.759733333333     0.443500000000     0.741550000000     0.113498   
C81      C      0.759733333333     0.776833333333     0.241550000000     0.113498   
C81      C      0.759733333333     0.776833333333     0.741550000000     0.113498   
C82      C      0.255966666667     0.146366666667     0.190850000000     0.127471   
C82      C      0.255966666667     0.146366666667     0.690850000000     0.127471   
C82      C      0.255966666667     0.479700000000     0.190850000000     0.127471   
C82      C      0.255966666667     0.479700000000     0.690850000000     0.127471   
C82      C      0.255966666667     0.813033333333     0.190850000000     0.127471   
C82      C      0.255966666667     0.813033333333     0.690850000000     0.127471   
C82      C      0.589300000000     0.146366666667     0.190850000000     0.127471   
C82      C      0.589300000000     0.146366666667     0.690850000000     0.127471   
C82      C      0.589300000000     0.479700000000     0.190850000000     0.127471   
C82      C      0.589300000000     0.479700000000     0.690850000000     0.127471   
C82      C      0.589300000000     0.813033333333     0.190850000000     0.127471   
C82      C      0.589300000000     0.813033333333     0.690850000000     0.127471   
C82      C      0.922633333333     0.146366666667     0.190850000000     0.127471   
C82      C      0.922633333333     0.146366666667     0.690850000000     0.127471   
C82      C      0.922633333333     0.479700000000     0.190850000000     0.127471   
C82      C      0.922633333333     0.479700000000     0.690850000000     0.127471   
C82      C      0.922633333333     0.813033333333     0.190850000000     0.127471   
C82      C      0.922633333333     0.813033333333     0.690850000000     0.127471   
C83      C      0.033833333333     0.121933333333     0.213350000000     0.119073   
C83      C      0.033833333333     0.121933333333     0.713350000000     0.119073   
C83      C      0.033833333333     0.455266666667     0.213350000000     0.119073   
C83      C      0.033833333333     0.455266666667     0.713350000000     0.119073   
C83      C      0.033833333333     0.788600000000     0.213350000000     0.119073   
C83      C      0.033833333333     0.788600000000     0.713350000000     0.119073   
C83      C      0.367166666667     0.121933333333     0.213350000000     0.119073   
C83      C      0.367166666667     0.121933333333     0.713350000000     0.119073   
C83      C      0.367166666667     0.455266666667     0.213350000000     0.119073   
C83      C      0.367166666667     0.455266666667     0.713350000000     0.119073   
C83      C      0.367166666667     0.788600000000     0.213350000000     0.119073   
C83      C      0.367166666667     0.788600000000     0.713350000000     0.119073   
C83      C      0.700500000000     0.121933333333     0.213350000000     0.119073   
C83      C      0.700500000000     0.121933333333     0.713350000000     0.119073   
C83      C      0.700500000000     0.455266666667     0.213350000000     0.119073   
C83      C      0.700500000000     0.455266666667     0.713350000000     0.119073   
C83      C      0.700500000000     0.788600000000     0.213350000000     0.119073   
C83      C      0.700500000000     0.788600000000     0.713350000000     0.119073   
C84      C      0.223300000000     0.240333333333     0.008450000000     0.12308    
C84      C      0.223300000000     0.240333333333     0.508450000000     0.12308    
C84      C      0.223300000000     0.573666666667     0.008450000000     0.12308    
C84      C      0.223300000000     0.573666666667     0.508450000000     0.12308    
C84      C      0.223300000000     0.907000000000     0.008450000000     0.12308    
C84      C      0.223300000000     0.907000000000     0.508450000000     0.12308    
C84      C      0.556633333333     0.240333333333     0.008450000000     0.12308    
C84      C      0.556633333333     0.240333333333     0.508450000000     0.12308    
C84      C      0.556633333333     0.573666666667     0.008450000000     0.12308    
C84      C      0.556633333333     0.573666666667     0.508450000000     0.12308    
C84      C      0.556633333333     0.907000000000     0.008450000000     0.12308    
C84      C      0.556633333333     0.907000000000     0.508450000000     0.12308    
C84      C      0.889966666667     0.240333333333     0.008450000000     0.12308    
C84      C      0.889966666667     0.240333333333     0.508450000000     0.12308    
C84      C      0.889966666667     0.573666666667     0.008450000000     0.12308    
C84      C      0.889966666667     0.573666666667     0.508450000000     0.12308    
C84      C      0.889966666667     0.907000000000     0.008450000000     0.12308    
C84      C      0.889966666667     0.907000000000     0.508450000000     0.12308    
C85      C      0.223866666667     0.280766666667     0.008100000000     0.134287   
C85      C      0.223866666667     0.280766666667     0.508100000000     0.134287   
C85      C      0.223866666667     0.614100000000     0.008100000000     0.134287   
C85      C      0.223866666667     0.614100000000     0.508100000000     0.134287   
C85      C      0.223866666667     0.947433333333     0.008100000000     0.134287   
C85      C      0.223866666667     0.947433333333     0.508100000000     0.134287   
C85      C      0.557200000000     0.280766666667     0.008100000000     0.134287   
C85      C      0.557200000000     0.280766666667     0.508100000000     0.134287   
C85      C      0.557200000000     0.614100000000     0.008100000000     0.134287   
C85      C      0.557200000000     0.614100000000     0.508100000000     0.134287   
C85      C      0.557200000000     0.947433333333     0.008100000000     0.134287   
C85      C      0.557200000000     0.947433333333     0.508100000000     0.134287   
C85      C      0.890533333333     0.280766666667     0.008100000000     0.134287   
C85      C      0.890533333333     0.280766666667     0.508100000000     0.134287   
C85      C      0.890533333333     0.614100000000     0.008100000000     0.134287   
C85      C      0.890533333333     0.614100000000     0.508100000000     0.134287   
C85      C      0.890533333333     0.947433333333     0.008100000000     0.134287   
C85      C      0.890533333333     0.947433333333     0.508100000000     0.134287   
C86      C      0.211266666667     0.299566666667     0.036650000000     0.125754   
C86      C      0.211266666667     0.299566666667     0.536650000000     0.125754   
C86      C      0.211266666667     0.632900000000     0.036650000000     0.125754   
C86      C      0.211266666667     0.632900000000     0.536650000000     0.125754   
C86      C      0.211266666667     0.966233333333     0.036650000000     0.125754   
C86      C      0.211266666667     0.966233333333     0.536650000000     0.125754   
C86      C      0.544600000000     0.299566666667     0.036650000000     0.125754   
C86      C      0.544600000000     0.299566666667     0.536650000000     0.125754   
C86      C      0.544600000000     0.632900000000     0.036650000000     0.125754   
C86      C      0.544600000000     0.632900000000     0.536650000000     0.125754   
C86      C      0.544600000000     0.966233333333     0.036650000000     0.125754   
C86      C      0.544600000000     0.966233333333     0.536650000000     0.125754   
C86      C      0.877933333333     0.299566666667     0.036650000000     0.125754   
C86      C      0.877933333333     0.299566666667     0.536650000000     0.125754   
C86      C      0.877933333333     0.632900000000     0.036650000000     0.125754   
C86      C      0.877933333333     0.632900000000     0.536650000000     0.125754   
C86      C      0.877933333333     0.966233333333     0.036650000000     0.125754   
C86      C      0.877933333333     0.966233333333     0.536650000000     0.125754   
C87      C      0.198400000000     0.275666666667     0.064900000000     0.134253   
C87      C      0.198400000000     0.275666666667     0.564900000000     0.134253   
C87      C      0.198400000000     0.609000000000     0.064900000000     0.134253   
C87      C      0.198400000000     0.609000000000     0.564900000000     0.134253   
C87      C      0.198400000000     0.942333333333     0.064900000000     0.134253   
C87      C      0.198400000000     0.942333333333     0.564900000000     0.134253   
C87      C      0.531733333333     0.275666666667     0.064900000000     0.134253   
C87      C      0.531733333333     0.275666666667     0.564900000000     0.134253   
C87      C      0.531733333333     0.609000000000     0.064900000000     0.134253   
C87      C      0.531733333333     0.609000000000     0.564900000000     0.134253   
C87      C      0.531733333333     0.942333333333     0.064900000000     0.134253   
C87      C      0.531733333333     0.942333333333     0.564900000000     0.134253   
C87      C      0.865066666667     0.275666666667     0.064900000000     0.134253   
C87      C      0.865066666667     0.275666666667     0.564900000000     0.134253   
C87      C      0.865066666667     0.609000000000     0.064900000000     0.134253   
C87      C      0.865066666667     0.609000000000     0.564900000000     0.134253   
C87      C      0.865066666667     0.942333333333     0.064900000000     0.134253   
C87      C      0.865066666667     0.942333333333     0.564900000000     0.134253   
C88      C      0.198633333333     0.235166666667     0.063150000000     0.11789    
C88      C      0.198633333333     0.235166666667     0.563150000000     0.11789    
C88      C      0.198633333333     0.568500000000     0.063150000000     0.11789    
C88      C      0.198633333333     0.568500000000     0.563150000000     0.11789    
C88      C      0.198633333333     0.901833333333     0.063150000000     0.11789    
C88      C      0.198633333333     0.901833333333     0.563150000000     0.11789    
C88      C      0.531966666667     0.235166666667     0.063150000000     0.11789    
C88      C      0.531966666667     0.235166666667     0.563150000000     0.11789    
C88      C      0.531966666667     0.568500000000     0.063150000000     0.11789    
C88      C      0.531966666667     0.568500000000     0.563150000000     0.11789    
C88      C      0.531966666667     0.901833333333     0.063150000000     0.11789    
C88      C      0.531966666667     0.901833333333     0.563150000000     0.11789    
C88      C      0.865300000000     0.235166666667     0.063150000000     0.11789    
C88      C      0.865300000000     0.235166666667     0.563150000000     0.11789    
C88      C      0.865300000000     0.568500000000     0.063150000000     0.11789    
C88      C      0.865300000000     0.568500000000     0.563150000000     0.11789    
C88      C      0.865300000000     0.901833333333     0.063150000000     0.11789    
C88      C      0.865300000000     0.901833333333     0.563150000000     0.11789    
C89      C      0.212300000000     0.009766666667     0.036900000000     0.128179   
C89      C      0.212300000000     0.009766666667     0.536900000000     0.128179   
C89      C      0.212300000000     0.343100000000     0.036900000000     0.128179   
C89      C      0.212300000000     0.343100000000     0.536900000000     0.128179   
C89      C      0.212300000000     0.676433333333     0.036900000000     0.128179   
C89      C      0.212300000000     0.676433333333     0.536900000000     0.128179   
C89      C      0.545633333333     0.009766666667     0.036900000000     0.128179   
C89      C      0.545633333333     0.009766666667     0.536900000000     0.128179   
C89      C      0.545633333333     0.343100000000     0.036900000000     0.128179   
C89      C      0.545633333333     0.343100000000     0.536900000000     0.128179   
C89      C      0.545633333333     0.676433333333     0.036900000000     0.128179   
C89      C      0.545633333333     0.676433333333     0.536900000000     0.128179   
C89      C      0.878966666667     0.009766666667     0.036900000000     0.128179   
C89      C      0.878966666667     0.009766666667     0.536900000000     0.128179   
C89      C      0.878966666667     0.343100000000     0.036900000000     0.128179   
C89      C      0.878966666667     0.343100000000     0.536900000000     0.128179   
C89      C      0.878966666667     0.676433333333     0.036900000000     0.128179   
C89      C      0.878966666667     0.676433333333     0.536900000000     0.128179   
C90      C      0.052800000000     0.109433333333     0.241950000000     0.121108   
C90      C      0.052800000000     0.109433333333     0.741950000000     0.121108   
C90      C      0.052800000000     0.442766666667     0.241950000000     0.121108   
C90      C      0.052800000000     0.442766666667     0.741950000000     0.121108   
C90      C      0.052800000000     0.776100000000     0.241950000000     0.121108   
C90      C      0.052800000000     0.776100000000     0.741950000000     0.121108   
C90      C      0.386133333333     0.109433333333     0.241950000000     0.121108   
C90      C      0.386133333333     0.109433333333     0.741950000000     0.121108   
C90      C      0.386133333333     0.442766666667     0.241950000000     0.121108   
C90      C      0.386133333333     0.442766666667     0.741950000000     0.121108   
C90      C      0.386133333333     0.776100000000     0.241950000000     0.121108   
C90      C      0.386133333333     0.776100000000     0.741950000000     0.121108   
C90      C      0.719466666667     0.109433333333     0.241950000000     0.121108   
C90      C      0.719466666667     0.109433333333     0.741950000000     0.121108   
C90      C      0.719466666667     0.442766666667     0.241950000000     0.121108   
C90      C      0.719466666667     0.442766666667     0.741950000000     0.121108   
C90      C      0.719466666667     0.776100000000     0.241950000000     0.121108   
C90      C      0.719466666667     0.776100000000     0.741950000000     0.121108   
C91      C      0.239833333333     0.065800000000     0.014150000000     0.127751   
C91      C      0.239833333333     0.065800000000     0.514150000000     0.127751   
C91      C      0.239833333333     0.399133333333     0.014150000000     0.127751   
C91      C      0.239833333333     0.399133333333     0.514150000000     0.127751   
C91      C      0.239833333333     0.732466666667     0.014150000000     0.127751   
C91      C      0.239833333333     0.732466666667     0.514150000000     0.127751   
C91      C      0.573166666667     0.065800000000     0.014150000000     0.127751   
C91      C      0.573166666667     0.065800000000     0.514150000000     0.127751   
C91      C      0.573166666667     0.399133333333     0.014150000000     0.127751   
C91      C      0.573166666667     0.399133333333     0.514150000000     0.127751   
C91      C      0.573166666667     0.732466666667     0.014150000000     0.127751   
C91      C      0.573166666667     0.732466666667     0.514150000000     0.127751   
C91      C      0.906500000000     0.065800000000     0.014150000000     0.127751   
C91      C      0.906500000000     0.065800000000     0.514150000000     0.127751   
C91      C      0.906500000000     0.399133333333     0.014150000000     0.127751   
C91      C      0.906500000000     0.399133333333     0.514150000000     0.127751   
C91      C      0.906500000000     0.732466666667     0.014150000000     0.127751   
C91      C      0.906500000000     0.732466666667     0.514150000000     0.127751   
C92      C      0.186766666667     0.077266666667     0.059250000000     0.124733   
C92      C      0.186766666667     0.077266666667     0.559250000000     0.124733   
C92      C      0.186766666667     0.410600000000     0.059250000000     0.124733   
C92      C      0.186766666667     0.410600000000     0.559250000000     0.124733   
C92      C      0.186766666667     0.743933333333     0.059250000000     0.124733   
C92      C      0.186766666667     0.743933333333     0.559250000000     0.124733   
C92      C      0.520100000000     0.077266666667     0.059250000000     0.124733   
C92      C      0.520100000000     0.077266666667     0.559250000000     0.124733   
C92      C      0.520100000000     0.410600000000     0.059250000000     0.124733   
C92      C      0.520100000000     0.410600000000     0.559250000000     0.124733   
C92      C      0.520100000000     0.743933333333     0.059250000000     0.124733   
C92      C      0.520100000000     0.743933333333     0.559250000000     0.124733   
C92      C      0.853433333333     0.077266666667     0.059250000000     0.124733   
C92      C      0.853433333333     0.077266666667     0.559250000000     0.124733   
C92      C      0.853433333333     0.410600000000     0.059250000000     0.124733   
C92      C      0.853433333333     0.410600000000     0.559250000000     0.124733   
C92      C      0.853433333333     0.743933333333     0.059250000000     0.124733   
C92      C      0.853433333333     0.743933333333     0.559250000000     0.124733   
C93      C      0.185700000000     0.036666666667     0.060500000000     0.121179   
C93      C      0.185700000000     0.036666666667     0.560500000000     0.121179   
C93      C      0.185700000000     0.370000000000     0.060500000000     0.121179   
C93      C      0.185700000000     0.370000000000     0.560500000000     0.121179   
C93      C      0.185700000000     0.703333333333     0.060500000000     0.121179   
C93      C      0.185700000000     0.703333333333     0.560500000000     0.121179   
C93      C      0.519033333333     0.036666666667     0.060500000000     0.121179   
C93      C      0.519033333333     0.036666666667     0.560500000000     0.121179   
C93      C      0.519033333333     0.370000000000     0.060500000000     0.121179   
C93      C      0.519033333333     0.370000000000     0.560500000000     0.121179   
C93      C      0.519033333333     0.703333333333     0.060500000000     0.121179   
C93      C      0.519033333333     0.703333333333     0.560500000000     0.121179   
C93      C      0.852366666667     0.036666666667     0.060500000000     0.121179   
C93      C      0.852366666667     0.036666666667     0.560500000000     0.121179   
C93      C      0.852366666667     0.370000000000     0.060500000000     0.121179   
C93      C      0.852366666667     0.370000000000     0.560500000000     0.121179   
C93      C      0.852366666667     0.703333333333     0.060500000000     0.121179   
C93      C      0.852366666667     0.703333333333     0.560500000000     0.121179   
C94      C      0.097800000000     0.134700000000     0.186650000000     0.12593    
C94      C      0.097800000000     0.134700000000     0.686650000000     0.12593    
C94      C      0.097800000000     0.468033333333     0.186650000000     0.12593    
C94      C      0.097800000000     0.468033333333     0.686650000000     0.12593    
C94      C      0.097800000000     0.801366666667     0.186650000000     0.12593    
C94      C      0.097800000000     0.801366666667     0.686650000000     0.12593    
C94      C      0.431133333333     0.134700000000     0.186650000000     0.12593    
C94      C      0.431133333333     0.134700000000     0.686650000000     0.12593    
C94      C      0.431133333333     0.468033333333     0.186650000000     0.12593    
C94      C      0.431133333333     0.468033333333     0.686650000000     0.12593    
C94      C      0.431133333333     0.801366666667     0.186650000000     0.12593    
C94      C      0.431133333333     0.801366666667     0.686650000000     0.12593    
C94      C      0.764466666667     0.134700000000     0.186650000000     0.12593    
C94      C      0.764466666667     0.134700000000     0.686650000000     0.12593    
C94      C      0.764466666667     0.468033333333     0.186650000000     0.12593    
C94      C      0.764466666667     0.468033333333     0.686650000000     0.12593    
C94      C      0.764466666667     0.801366666667     0.186650000000     0.12593    
C94      C      0.764466666667     0.801366666667     0.686650000000     0.12593    
C95      C      0.058133333333     0.134533333333     0.185050000000     0.093589   
C95      C      0.058133333333     0.134533333333     0.685050000000     0.093589   
C95      C      0.058133333333     0.467866666667     0.185050000000     0.093589   
C95      C      0.058133333333     0.467866666667     0.685050000000     0.093589   
C95      C      0.058133333333     0.801200000000     0.185050000000     0.093589   
C95      C      0.058133333333     0.801200000000     0.685050000000     0.093589   
C95      C      0.391466666667     0.134533333333     0.185050000000     0.093589   
C95      C      0.391466666667     0.134533333333     0.685050000000     0.093589   
C95      C      0.391466666667     0.467866666667     0.185050000000     0.093589   
C95      C      0.391466666667     0.467866666667     0.685050000000     0.093589   
C95      C      0.391466666667     0.801200000000     0.185050000000     0.093589   
C95      C      0.391466666667     0.801200000000     0.685050000000     0.093589   
C95      C      0.724800000000     0.134533333333     0.185050000000     0.093589   
C95      C      0.724800000000     0.134533333333     0.685050000000     0.093589   
C95      C      0.724800000000     0.467866666667     0.185050000000     0.093589   
C95      C      0.724800000000     0.467866666667     0.685050000000     0.093589   
C95      C      0.724800000000     0.801200000000     0.185050000000     0.093589   
C95      C      0.724800000000     0.801200000000     0.685050000000     0.093589   
C96      C      0.240733333333     0.024966666667     0.013400000000     0.095228   
C96      C      0.240733333333     0.024966666667     0.513400000000     0.095228   
C96      C      0.240733333333     0.358300000000     0.013400000000     0.095228   
C96      C      0.240733333333     0.358300000000     0.513400000000     0.095228   
C96      C      0.240733333333     0.691633333333     0.013400000000     0.095228   
C96      C      0.240733333333     0.691633333333     0.513400000000     0.095228   
C96      C      0.574066666667     0.024966666667     0.013400000000     0.095228   
C96      C      0.574066666667     0.024966666667     0.513400000000     0.095228   
C96      C      0.574066666667     0.358300000000     0.013400000000     0.095228   
C96      C      0.574066666667     0.358300000000     0.513400000000     0.095228   
C96      C      0.574066666667     0.691633333333     0.013400000000     0.095228   
C96      C      0.574066666667     0.691633333333     0.513400000000     0.095228   
C96      C      0.907400000000     0.024966666667     0.013400000000     0.095228   
C96      C      0.907400000000     0.024966666667     0.513400000000     0.095228   
C96      C      0.907400000000     0.358300000000     0.013400000000     0.095228   
C96      C      0.907400000000     0.358300000000     0.513400000000     0.095228   
C96      C      0.907400000000     0.691633333333     0.013400000000     0.095228   
C96      C      0.907400000000     0.691633333333     0.513400000000     0.095228   
H1       H      0.086300000000     0.078966666667     0.070000000000     0.121916   
H1       H      0.086300000000     0.078966666667     0.570000000000     0.121916   
H1       H      0.086300000000     0.412300000000     0.070000000000     0.121916   
H1       H      0.086300000000     0.412300000000     0.570000000000     0.121916   
H1       H      0.086300000000     0.745633333333     0.070000000000     0.121916   
H1       H      0.086300000000     0.745633333333     0.570000000000     0.121916   
H1       H      0.419633333333     0.078966666667     0.070000000000     0.121916   
H1       H      0.419633333333     0.078966666667     0.570000000000     0.121916   
H1       H      0.419633333333     0.412300000000     0.070000000000     0.121916   
H1       H      0.419633333333     0.412300000000     0.570000000000     0.121916   
H1       H      0.419633333333     0.745633333333     0.070000000000     0.121916   
H1       H      0.419633333333     0.745633333333     0.570000000000     0.121916   
H1       H      0.752966666667     0.078966666667     0.070000000000     0.121916   
H1       H      0.752966666667     0.078966666667     0.570000000000     0.121916   
H1       H      0.752966666667     0.412300000000     0.070000000000     0.121916   
H1       H      0.752966666667     0.412300000000     0.570000000000     0.121916   
H1       H      0.752966666667     0.745633333333     0.070000000000     0.121916   
H1       H      0.752966666667     0.745633333333     0.570000000000     0.121916   
H2       H      0.025300000000     0.106133333333     0.042550000000     0.126961   
H2       H      0.025300000000     0.106133333333     0.542550000000     0.126961   
H2       H      0.025300000000     0.439466666667     0.042550000000     0.126961   
H2       H      0.025300000000     0.439466666667     0.542550000000     0.126961   
H2       H      0.025300000000     0.772800000000     0.042550000000     0.126961   
H2       H      0.025300000000     0.772800000000     0.542550000000     0.126961   
H2       H      0.358633333333     0.106133333333     0.042550000000     0.126961   
H2       H      0.358633333333     0.106133333333     0.542550000000     0.126961   
H2       H      0.358633333333     0.439466666667     0.042550000000     0.126961   
H2       H      0.358633333333     0.439466666667     0.542550000000     0.126961   
H2       H      0.358633333333     0.772800000000     0.042550000000     0.126961   
H2       H      0.358633333333     0.772800000000     0.542550000000     0.126961   
H2       H      0.691966666667     0.106133333333     0.042550000000     0.126961   
H2       H      0.691966666667     0.106133333333     0.542550000000     0.126961   
H2       H      0.691966666667     0.439466666667     0.042550000000     0.126961   
H2       H      0.691966666667     0.439466666667     0.542550000000     0.126961   
H2       H      0.691966666667     0.772800000000     0.042550000000     0.126961   
H2       H      0.691966666667     0.772800000000     0.542550000000     0.126961   
H3       H      0.091566666667     0.313233333333     0.120800000000     0.102196   
H3       H      0.091566666667     0.313233333333     0.620800000000     0.102196   
H3       H      0.091566666667     0.646566666667     0.120800000000     0.102196   
H3       H      0.091566666667     0.646566666667     0.620800000000     0.102196   
H3       H      0.091566666667     0.979900000000     0.120800000000     0.102196   
H3       H      0.091566666667     0.979900000000     0.620800000000     0.102196   
H3       H      0.424900000000     0.313233333333     0.120800000000     0.102196   
H3       H      0.424900000000     0.313233333333     0.620800000000     0.102196   
H3       H      0.424900000000     0.646566666667     0.120800000000     0.102196   
H3       H      0.424900000000     0.646566666667     0.620800000000     0.102196   
H3       H      0.424900000000     0.979900000000     0.120800000000     0.102196   
H3       H      0.424900000000     0.979900000000     0.620800000000     0.102196   
H3       H      0.758233333333     0.313233333333     0.120800000000     0.102196   
H3       H      0.758233333333     0.313233333333     0.620800000000     0.102196   
H3       H      0.758233333333     0.646566666667     0.120800000000     0.102196   
H3       H      0.758233333333     0.646566666667     0.620800000000     0.102196   
H3       H      0.758233333333     0.979900000000     0.120800000000     0.102196   
H3       H      0.758233333333     0.979900000000     0.620800000000     0.102196   
H4       H      0.118233333333     0.244133333333     0.152050000000     0.132817   
H4       H      0.118233333333     0.244133333333     0.652050000000     0.132817   
H4       H      0.118233333333     0.577466666667     0.152050000000     0.132817   
H4       H      0.118233333333     0.577466666667     0.652050000000     0.132817   
H4       H      0.118233333333     0.910800000000     0.152050000000     0.132817   
H4       H      0.118233333333     0.910800000000     0.652050000000     0.132817   
H4       H      0.451566666667     0.244133333333     0.152050000000     0.132817   
H4       H      0.451566666667     0.244133333333     0.652050000000     0.132817   
H4       H      0.451566666667     0.577466666667     0.152050000000     0.132817   
H4       H      0.451566666667     0.577466666667     0.652050000000     0.132817   
H4       H      0.451566666667     0.910800000000     0.152050000000     0.132817   
H4       H      0.451566666667     0.910800000000     0.652050000000     0.132817   
H4       H      0.784900000000     0.244133333333     0.152050000000     0.132817   
H4       H      0.784900000000     0.244133333333     0.652050000000     0.132817   
H4       H      0.784900000000     0.577466666667     0.152050000000     0.132817   
H4       H      0.784900000000     0.577466666667     0.652050000000     0.132817   
H4       H      0.784900000000     0.910800000000     0.152050000000     0.132817   
H4       H      0.784900000000     0.910800000000     0.652050000000     0.132817   
H5       H      0.145733333333     0.295866666667     0.218100000000     0.09296    
H5       H      0.145733333333     0.295866666667     0.718100000000     0.09296    
H5       H      0.145733333333     0.629200000000     0.218100000000     0.09296    
H5       H      0.145733333333     0.629200000000     0.718100000000     0.09296    
H5       H      0.145733333333     0.962533333333     0.218100000000     0.09296    
H5       H      0.145733333333     0.962533333333     0.718100000000     0.09296    
H5       H      0.479066666667     0.295866666667     0.218100000000     0.09296    
H5       H      0.479066666667     0.295866666667     0.718100000000     0.09296    
H5       H      0.479066666667     0.629200000000     0.218100000000     0.09296    
H5       H      0.479066666667     0.629200000000     0.718100000000     0.09296    
H5       H      0.479066666667     0.962533333333     0.218100000000     0.09296    
H5       H      0.479066666667     0.962533333333     0.718100000000     0.09296    
H5       H      0.812400000000     0.295866666667     0.218100000000     0.09296    
H5       H      0.812400000000     0.295866666667     0.718100000000     0.09296    
H5       H      0.812400000000     0.629200000000     0.218100000000     0.09296    
H5       H      0.812400000000     0.629200000000     0.718100000000     0.09296    
H5       H      0.812400000000     0.962533333333     0.218100000000     0.09296    
H5       H      0.812400000000     0.962533333333     0.718100000000     0.09296    
H6       H      0.120866666667     0.030966666667     0.186050000000     0.131668   
H6       H      0.120866666667     0.030966666667     0.686050000000     0.131668   
H6       H      0.120866666667     0.364300000000     0.186050000000     0.131668   
H6       H      0.120866666667     0.364300000000     0.686050000000     0.131668   
H6       H      0.120866666667     0.697633333333     0.186050000000     0.131668   
H6       H      0.120866666667     0.697633333333     0.686050000000     0.131668   
H6       H      0.454200000000     0.030966666667     0.186050000000     0.131668   
H6       H      0.454200000000     0.030966666667     0.686050000000     0.131668   
H6       H      0.454200000000     0.364300000000     0.186050000000     0.131668   
H6       H      0.454200000000     0.364300000000     0.686050000000     0.131668   
H6       H      0.454200000000     0.697633333333     0.186050000000     0.131668   
H6       H      0.454200000000     0.697633333333     0.686050000000     0.131668   
H6       H      0.787533333333     0.030966666667     0.186050000000     0.131668   
H6       H      0.787533333333     0.030966666667     0.686050000000     0.131668   
H6       H      0.787533333333     0.364300000000     0.186050000000     0.131668   
H6       H      0.787533333333     0.364300000000     0.686050000000     0.131668   
H6       H      0.787533333333     0.697633333333     0.186050000000     0.131668   
H6       H      0.787533333333     0.697633333333     0.686050000000     0.131668   
H7       H      0.020066666667     0.241900000000     0.128850000000     0.104468   
H7       H      0.020066666667     0.241900000000     0.628850000000     0.104468   
H7       H      0.020066666667     0.575233333333     0.128850000000     0.104468   
H7       H      0.020066666667     0.575233333333     0.628850000000     0.104468   
H7       H      0.020066666667     0.908566666667     0.128850000000     0.104468   
H7       H      0.020066666667     0.908566666667     0.628850000000     0.104468   
H7       H      0.353400000000     0.241900000000     0.128850000000     0.104468   
H7       H      0.353400000000     0.241900000000     0.628850000000     0.104468   
H7       H      0.353400000000     0.575233333333     0.128850000000     0.104468   
H7       H      0.353400000000     0.575233333333     0.628850000000     0.104468   
H7       H      0.353400000000     0.908566666667     0.128850000000     0.104468   
H7       H      0.353400000000     0.908566666667     0.628850000000     0.104468   
H7       H      0.686733333333     0.241900000000     0.128850000000     0.104468   
H7       H      0.686733333333     0.241900000000     0.628850000000     0.104468   
H7       H      0.686733333333     0.575233333333     0.128850000000     0.104468   
H7       H      0.686733333333     0.575233333333     0.628850000000     0.104468   
H7       H      0.686733333333     0.908566666667     0.128850000000     0.104468   
H7       H      0.686733333333     0.908566666667     0.628850000000     0.104468   
H8       H      0.302166666667     0.212233333333     0.064150000000     0.104337   
H8       H      0.302166666667     0.212233333333     0.564150000000     0.104337   
H8       H      0.302166666667     0.545566666667     0.064150000000     0.104337   
H8       H      0.302166666667     0.545566666667     0.564150000000     0.104337   
H8       H      0.302166666667     0.878900000000     0.064150000000     0.104337   
H8       H      0.302166666667     0.878900000000     0.564150000000     0.104337   
H8       H      0.635500000000     0.212233333333     0.064150000000     0.104337   
H8       H      0.635500000000     0.212233333333     0.564150000000     0.104337   
H8       H      0.635500000000     0.545566666667     0.064150000000     0.104337   
H8       H      0.635500000000     0.545566666667     0.564150000000     0.104337   
H8       H      0.635500000000     0.878900000000     0.064150000000     0.104337   
H8       H      0.635500000000     0.878900000000     0.564150000000     0.104337   
H8       H      0.968833333333     0.212233333333     0.064150000000     0.104337   
H8       H      0.968833333333     0.212233333333     0.564150000000     0.104337   
H8       H      0.968833333333     0.545566666667     0.064150000000     0.104337   
H8       H      0.968833333333     0.545566666667     0.564150000000     0.104337   
H8       H      0.968833333333     0.878900000000     0.064150000000     0.104337   
H8       H      0.968833333333     0.878900000000     0.564150000000     0.104337   
H9       H      0.089100000000     0.214300000000     0.098300000000     0.113161   
H9       H      0.089100000000     0.214300000000     0.598300000000     0.113161   
H9       H      0.089100000000     0.547633333333     0.098300000000     0.113161   
H9       H      0.089100000000     0.547633333333     0.598300000000     0.113161   
H9       H      0.089100000000     0.880966666667     0.098300000000     0.113161   
H9       H      0.089100000000     0.880966666667     0.598300000000     0.113161   
H9       H      0.422433333333     0.214300000000     0.098300000000     0.113161   
H9       H      0.422433333333     0.214300000000     0.598300000000     0.113161   
H9       H      0.422433333333     0.547633333333     0.098300000000     0.113161   
H9       H      0.422433333333     0.547633333333     0.598300000000     0.113161   
H9       H      0.422433333333     0.880966666667     0.098300000000     0.113161   
H9       H      0.422433333333     0.880966666667     0.598300000000     0.113161   
H9       H      0.755766666667     0.214300000000     0.098300000000     0.113161   
H9       H      0.755766666667     0.214300000000     0.598300000000     0.113161   
H9       H      0.755766666667     0.547633333333     0.098300000000     0.113161   
H9       H      0.755766666667     0.547633333333     0.598300000000     0.113161   
H9       H      0.755766666667     0.880966666667     0.098300000000     0.113161   
H9       H      0.755766666667     0.880966666667     0.598300000000     0.113161   
H10      H      0.271833333333     0.321500000000     0.093900000000     0.121981   
H10      H      0.271833333333     0.321500000000     0.593900000000     0.121981   
H10      H      0.271833333333     0.654833333333     0.093900000000     0.121981   
H10      H      0.271833333333     0.654833333333     0.593900000000     0.121981   
H10      H      0.271833333333     0.988166666667     0.093900000000     0.121981   
H10      H      0.271833333333     0.988166666667     0.593900000000     0.121981   
H10      H      0.605166666667     0.321500000000     0.093900000000     0.121981   
H10      H      0.605166666667     0.321500000000     0.593900000000     0.121981   
H10      H      0.605166666667     0.654833333333     0.093900000000     0.121981   
H10      H      0.605166666667     0.654833333333     0.593900000000     0.121981   
H10      H      0.605166666667     0.988166666667     0.093900000000     0.121981   
H10      H      0.605166666667     0.988166666667     0.593900000000     0.121981   
H10      H      0.938500000000     0.321500000000     0.093900000000     0.121981   
H10      H      0.938500000000     0.321500000000     0.593900000000     0.121981   
H10      H      0.938500000000     0.654833333333     0.093900000000     0.121981   
H10      H      0.938500000000     0.654833333333     0.593900000000     0.121981   
H10      H      0.938500000000     0.988166666667     0.093900000000     0.121981   
H10      H      0.938500000000     0.988166666667     0.593900000000     0.121981   
H11      H      0.241366666667     0.049800000000     0.120850000000     0.09467    
H11      H      0.241366666667     0.049800000000     0.620850000000     0.09467    
H11      H      0.241366666667     0.383133333333     0.120850000000     0.09467    
H11      H      0.241366666667     0.383133333333     0.620850000000     0.09467    
H11      H      0.241366666667     0.716466666667     0.120850000000     0.09467    
H11      H      0.241366666667     0.716466666667     0.620850000000     0.09467    
H11      H      0.574700000000     0.049800000000     0.120850000000     0.09467    
H11      H      0.574700000000     0.049800000000     0.620850000000     0.09467    
H11      H      0.574700000000     0.383133333333     0.120850000000     0.09467    
H11      H      0.574700000000     0.383133333333     0.620850000000     0.09467    
H11      H      0.574700000000     0.716466666667     0.120850000000     0.09467    
H11      H      0.574700000000     0.716466666667     0.620850000000     0.09467    
H11      H      0.908033333333     0.049800000000     0.120850000000     0.09467    
H11      H      0.908033333333     0.049800000000     0.620850000000     0.09467    
H11      H      0.908033333333     0.383133333333     0.120850000000     0.09467    
H11      H      0.908033333333     0.383133333333     0.620850000000     0.09467    
H11      H      0.908033333333     0.716466666667     0.120850000000     0.09467    
H11      H      0.908033333333     0.716466666667     0.620850000000     0.09467    
H12      H      0.012133333333     0.061666666667     0.156050000000     0.10532    
H12      H      0.012133333333     0.061666666667     0.656050000000     0.10532    
H12      H      0.012133333333     0.395000000000     0.156050000000     0.10532    
H12      H      0.012133333333     0.395000000000     0.656050000000     0.10532    
H12      H      0.012133333333     0.728333333333     0.156050000000     0.10532    
H12      H      0.012133333333     0.728333333333     0.656050000000     0.10532    
H12      H      0.345466666667     0.061666666667     0.156050000000     0.10532    
H12      H      0.345466666667     0.061666666667     0.656050000000     0.10532    
H12      H      0.345466666667     0.395000000000     0.156050000000     0.10532    
H12      H      0.345466666667     0.395000000000     0.656050000000     0.10532    
H12      H      0.345466666667     0.728333333333     0.156050000000     0.10532    
H12      H      0.345466666667     0.728333333333     0.656050000000     0.10532    
H12      H      0.678800000000     0.061666666667     0.156050000000     0.10532    
H12      H      0.678800000000     0.061666666667     0.656050000000     0.10532    
H12      H      0.678800000000     0.395000000000     0.156050000000     0.10532    
H12      H      0.678800000000     0.395000000000     0.656050000000     0.10532    
H12      H      0.678800000000     0.728333333333     0.156050000000     0.10532    
H12      H      0.678800000000     0.728333333333     0.656050000000     0.10532    
H13      H      0.037700000000     0.187466666667     0.031750000000     0.125463   
H13      H      0.037700000000     0.187466666667     0.531750000000     0.125463   
H13      H      0.037700000000     0.520800000000     0.031750000000     0.125463   
H13      H      0.037700000000     0.520800000000     0.531750000000     0.125463   
H13      H      0.037700000000     0.854133333333     0.031750000000     0.125463   
H13      H      0.037700000000     0.854133333333     0.531750000000     0.125463   
H13      H      0.371033333333     0.187466666667     0.031750000000     0.125463   
H13      H      0.371033333333     0.187466666667     0.531750000000     0.125463   
H13      H      0.371033333333     0.520800000000     0.031750000000     0.125463   
H13      H      0.371033333333     0.520800000000     0.531750000000     0.125463   
H13      H      0.371033333333     0.854133333333     0.031750000000     0.125463   
H13      H      0.371033333333     0.854133333333     0.531750000000     0.125463   
H13      H      0.704366666667     0.187466666667     0.031750000000     0.125463   
H13      H      0.704366666667     0.187466666667     0.531750000000     0.125463   
H13      H      0.704366666667     0.520800000000     0.031750000000     0.125463   
H13      H      0.704366666667     0.520800000000     0.531750000000     0.125463   
H13      H      0.704366666667     0.854133333333     0.031750000000     0.125463   
H13      H      0.704366666667     0.854133333333     0.531750000000     0.125463   
H14      H      0.283433333333     0.092133333333     0.129150000000     0.126262   
H14      H      0.283433333333     0.092133333333     0.629150000000     0.126262   
H14      H      0.283433333333     0.425466666667     0.129150000000     0.126262   
H14      H      0.283433333333     0.425466666667     0.629150000000     0.126262   
H14      H      0.283433333333     0.758800000000     0.129150000000     0.126262   
H14      H      0.283433333333     0.758800000000     0.629150000000     0.126262   
H14      H      0.616766666667     0.092133333333     0.129150000000     0.126262   
H14      H      0.616766666667     0.092133333333     0.629150000000     0.126262   
H14      H      0.616766666667     0.425466666667     0.129150000000     0.126262   
H14      H      0.616766666667     0.425466666667     0.629150000000     0.126262   
H14      H      0.616766666667     0.758800000000     0.129150000000     0.126262   
H14      H      0.616766666667     0.758800000000     0.629150000000     0.126262   
H14      H      0.950100000000     0.092133333333     0.129150000000     0.126262   
H14      H      0.950100000000     0.092133333333     0.629150000000     0.126262   
H14      H      0.950100000000     0.425466666667     0.129150000000     0.126262   
H14      H      0.950100000000     0.425466666667     0.629150000000     0.126262   
H14      H      0.950100000000     0.758800000000     0.129150000000     0.126262   
H14      H      0.950100000000     0.758800000000     0.629150000000     0.126262   
H15      H      0.047300000000     0.142966666667     0.164700000000     0.124652   
H15      H      0.047300000000     0.142966666667     0.664700000000     0.124652   
H15      H      0.047300000000     0.476300000000     0.164700000000     0.124652   
H15      H      0.047300000000     0.476300000000     0.664700000000     0.124652   
H15      H      0.047300000000     0.809633333333     0.164700000000     0.124652   
H15      H      0.047300000000     0.809633333333     0.664700000000     0.124652   
H15      H      0.380633333333     0.142966666667     0.164700000000     0.124652   
H15      H      0.380633333333     0.142966666667     0.664700000000     0.124652   
H15      H      0.380633333333     0.476300000000     0.164700000000     0.124652   
H15      H      0.380633333333     0.476300000000     0.664700000000     0.124652   
H15      H      0.380633333333     0.809633333333     0.164700000000     0.124652   
H15      H      0.380633333333     0.809633333333     0.664700000000     0.124652   
H15      H      0.713966666667     0.142966666667     0.164700000000     0.124652   
H15      H      0.713966666667     0.142966666667     0.664700000000     0.124652   
H15      H      0.713966666667     0.476300000000     0.164700000000     0.124652   
H15      H      0.713966666667     0.476300000000     0.664700000000     0.124652   
H15      H      0.713966666667     0.809633333333     0.164700000000     0.124652   
H15      H      0.713966666667     0.809633333333     0.664700000000     0.124652   
H16      H      0.258266666667     0.074200000000     0.251950000000     0.132843   
H16      H      0.258266666667     0.074200000000     0.751950000000     0.132843   
H16      H      0.258266666667     0.407533333333     0.251950000000     0.132843   
H16      H      0.258266666667     0.407533333333     0.751950000000     0.132843   
H16      H      0.258266666667     0.740866666667     0.251950000000     0.132843   
H16      H      0.258266666667     0.740866666667     0.751950000000     0.132843   
H16      H      0.591600000000     0.074200000000     0.251950000000     0.132843   
H16      H      0.591600000000     0.074200000000     0.751950000000     0.132843   
H16      H      0.591600000000     0.407533333333     0.251950000000     0.132843   
H16      H      0.591600000000     0.407533333333     0.751950000000     0.132843   
H16      H      0.591600000000     0.740866666667     0.251950000000     0.132843   
H16      H      0.591600000000     0.740866666667     0.751950000000     0.132843   
H16      H      0.924933333333     0.074200000000     0.251950000000     0.132843   
H16      H      0.924933333333     0.074200000000     0.751950000000     0.132843   
H16      H      0.924933333333     0.407533333333     0.251950000000     0.132843   
H16      H      0.924933333333     0.407533333333     0.751950000000     0.132843   
H16      H      0.924933333333     0.740866666667     0.251950000000     0.132843   
H16      H      0.924933333333     0.740866666667     0.751950000000     0.132843   
H17      H      0.232433333333     0.228366666667     0.488550000000     0.121941   
H17      H      0.232433333333     0.228366666667     0.988550000000     0.121941   
H17      H      0.232433333333     0.561700000000     0.488550000000     0.121941   
H17      H      0.232433333333     0.561700000000     0.988550000000     0.121941   
H17      H      0.232433333333     0.895033333333     0.488550000000     0.121941   
H17      H      0.232433333333     0.895033333333     0.988550000000     0.121941   
H17      H      0.565766666667     0.228366666667     0.488550000000     0.121941   
H17      H      0.565766666667     0.228366666667     0.988550000000     0.121941   
H17      H      0.565766666667     0.561700000000     0.488550000000     0.121941   
H17      H      0.565766666667     0.561700000000     0.988550000000     0.121941   
H17      H      0.565766666667     0.895033333333     0.488550000000     0.121941   
H17      H      0.565766666667     0.895033333333     0.988550000000     0.121941   
H17      H      0.899100000000     0.228366666667     0.488550000000     0.121941   
H17      H      0.899100000000     0.228366666667     0.988550000000     0.121941   
H17      H      0.899100000000     0.561700000000     0.488550000000     0.121941   
H17      H      0.899100000000     0.561700000000     0.988550000000     0.121941   
H17      H      0.899100000000     0.895033333333     0.488550000000     0.121941   
H17      H      0.899100000000     0.895033333333     0.988550000000     0.121941   
H18      H      0.232900000000     0.295500000000     0.488200000000     0.124653   
H18      H      0.232900000000     0.295500000000     0.988200000000     0.124653   
H18      H      0.232900000000     0.628833333333     0.488200000000     0.124653   
H18      H      0.232900000000     0.628833333333     0.988200000000     0.124653   
H18      H      0.232900000000     0.962166666667     0.488200000000     0.124653   
H18      H      0.232900000000     0.962166666667     0.988200000000     0.124653   
H18      H      0.566233333333     0.295500000000     0.488200000000     0.124653   
H18      H      0.566233333333     0.295500000000     0.988200000000     0.124653   
H18      H      0.566233333333     0.628833333333     0.488200000000     0.124653   
H18      H      0.566233333333     0.628833333333     0.988200000000     0.124653   
H18      H      0.566233333333     0.962166666667     0.488200000000     0.124653   
H18      H      0.566233333333     0.962166666667     0.988200000000     0.124653   
H18      H      0.899566666667     0.295500000000     0.488200000000     0.124653   
H18      H      0.899566666667     0.295500000000     0.988200000000     0.124653   
H18      H      0.899566666667     0.628833333333     0.488200000000     0.124653   
H18      H      0.899566666667     0.628833333333     0.988200000000     0.124653   
H18      H      0.899566666667     0.962166666667     0.488200000000     0.124653   
H18      H      0.899566666667     0.962166666667     0.988200000000     0.124653   
H19      H      0.189566666667     0.286700000000     0.085150000000     0.113161   
H19      H      0.189566666667     0.286700000000     0.585150000000     0.113161   
H19      H      0.189566666667     0.620033333333     0.085150000000     0.113161   
H19      H      0.189566666667     0.620033333333     0.585150000000     0.113161   
H19      H      0.189566666667     0.953366666667     0.085150000000     0.113161   
H19      H      0.189566666667     0.953366666667     0.585150000000     0.113161   
H19      H      0.522900000000     0.286700000000     0.085150000000     0.113161   
H19      H      0.522900000000     0.286700000000     0.585150000000     0.113161   
H19      H      0.522900000000     0.620033333333     0.085150000000     0.113161   
H19      H      0.522900000000     0.620033333333     0.585150000000     0.113161   
H19      H      0.522900000000     0.953366666667     0.085150000000     0.113161   
H19      H      0.522900000000     0.953366666667     0.585150000000     0.113161   
H19      H      0.856233333333     0.286700000000     0.085150000000     0.113161   
H19      H      0.856233333333     0.286700000000     0.585150000000     0.113161   
H19      H      0.856233333333     0.620033333333     0.085150000000     0.113161   
H19      H      0.856233333333     0.620033333333     0.585150000000     0.113161   
H19      H      0.856233333333     0.953366666667     0.085150000000     0.113161   
H19      H      0.856233333333     0.953366666667     0.585150000000     0.113161   
H20      H      0.189900000000     0.219600000000     0.082700000000     0.121096   
H20      H      0.189900000000     0.219600000000     0.582700000000     0.121096   
H20      H      0.189900000000     0.552933333333     0.082700000000     0.121096   
H20      H      0.189900000000     0.552933333333     0.582700000000     0.121096   
H20      H      0.189900000000     0.886266666667     0.082700000000     0.121096   
H20      H      0.189900000000     0.886266666667     0.582700000000     0.121096   
H20      H      0.523233333333     0.219600000000     0.082700000000     0.121096   
H20      H      0.523233333333     0.219600000000     0.582700000000     0.121096   
H20      H      0.523233333333     0.552933333333     0.082700000000     0.121096   
H20      H      0.523233333333     0.552933333333     0.582700000000     0.121096   
H20      H      0.523233333333     0.886266666667     0.082700000000     0.121096   
H20      H      0.523233333333     0.886266666667     0.582700000000     0.121096   
H20      H      0.856566666667     0.219600000000     0.082700000000     0.121096   
H20      H      0.856566666667     0.219600000000     0.582700000000     0.121096   
H20      H      0.856566666667     0.552933333333     0.082700000000     0.121096   
H20      H      0.856566666667     0.552933333333     0.582700000000     0.121096   
H20      H      0.856566666667     0.886266666667     0.082700000000     0.121096   
H20      H      0.856566666667     0.886266666667     0.582700000000     0.121096   
H21      H      0.260133333333     0.007666666667     0.497400000000     0.128177   
H21      H      0.260133333333     0.007666666667     0.997400000000     0.128177   
H21      H      0.260133333333     0.341000000000     0.497400000000     0.128177   
H21      H      0.260133333333     0.341000000000     0.997400000000     0.128177   
H21      H      0.260133333333     0.674333333333     0.497400000000     0.128177   
H21      H      0.260133333333     0.674333333333     0.997400000000     0.128177   
H21      H      0.593466666667     0.007666666667     0.497400000000     0.128177   
H21      H      0.593466666667     0.007666666667     0.997400000000     0.128177   
H21      H      0.593466666667     0.341000000000     0.497400000000     0.128177   
H21      H      0.593466666667     0.341000000000     0.997400000000     0.128177   
H21      H      0.593466666667     0.674333333333     0.497400000000     0.128177   
H21      H      0.593466666667     0.674333333333     0.997400000000     0.128177   
H21      H      0.926800000000     0.007666666667     0.497400000000     0.128177   
H21      H      0.926800000000     0.007666666667     0.997400000000     0.128177   
H21      H      0.926800000000     0.341000000000     0.497400000000     0.128177   
H21      H      0.926800000000     0.341000000000     0.997400000000     0.128177   
H21      H      0.926800000000     0.674333333333     0.497400000000     0.128177   
H21      H      0.926800000000     0.674333333333     0.997400000000     0.128177   
H22      H      0.259166666667     0.075266666667     0.498350000000     0.117885   
H22      H      0.259166666667     0.075266666667     0.998350000000     0.117885   
H22      H      0.259166666667     0.408600000000     0.498350000000     0.117885   
H22      H      0.259166666667     0.408600000000     0.998350000000     0.117885   
H22      H      0.259166666667     0.741933333333     0.498350000000     0.117885   
H22      H      0.259166666667     0.741933333333     0.998350000000     0.117885   
H22      H      0.592500000000     0.075266666667     0.498350000000     0.117885   
H22      H      0.592500000000     0.075266666667     0.998350000000     0.117885   
H22      H      0.592500000000     0.408600000000     0.498350000000     0.117885   
H22      H      0.592500000000     0.408600000000     0.998350000000     0.117885   
H22      H      0.592500000000     0.741933333333     0.498350000000     0.117885   
H22      H      0.592500000000     0.741933333333     0.998350000000     0.117885   
H22      H      0.925833333333     0.075266666667     0.498350000000     0.117885   
H22      H      0.925833333333     0.075266666667     0.998350000000     0.117885   
H22      H      0.925833333333     0.408600000000     0.498350000000     0.117885   
H22      H      0.925833333333     0.408600000000     0.998350000000     0.117885   
H22      H      0.925833333333     0.741933333333     0.498350000000     0.117885   
H22      H      0.925833333333     0.741933333333     0.998350000000     0.117885   
H23      H      0.325733333333     0.073400000000     0.252600000000     0.125747   
H23      H      0.325733333333     0.073400000000     0.752600000000     0.125747   
H23      H      0.325733333333     0.406733333333     0.252600000000     0.125747   
H23      H      0.325733333333     0.406733333333     0.752600000000     0.125747   
H23      H      0.325733333333     0.740066666667     0.252600000000     0.125747   
H23      H      0.325733333333     0.740066666667     0.752600000000     0.125747   
H23      H      0.659066666667     0.073400000000     0.252600000000     0.125747   
H23      H      0.659066666667     0.073400000000     0.752600000000     0.125747   
H23      H      0.659066666667     0.406733333333     0.252600000000     0.125747   
H23      H      0.659066666667     0.406733333333     0.752600000000     0.125747   
H23      H      0.659066666667     0.740066666667     0.252600000000     0.125747   
H23      H      0.659066666667     0.740066666667     0.752600000000     0.125747   
H23      H      0.992400000000     0.073400000000     0.252600000000     0.125747   
H23      H      0.992400000000     0.073400000000     0.752600000000     0.125747   
H23      H      0.992400000000     0.406733333333     0.252600000000     0.125747   
H23      H      0.992400000000     0.406733333333     0.752600000000     0.125747   
H23      H      0.992400000000     0.740066666667     0.252600000000     0.125747   
H23      H      0.992400000000     0.740066666667     0.752600000000     0.125747   
H24      H      0.168266666667     0.094966666667     0.075300000000     0.134246   
H24      H      0.168266666667     0.094966666667     0.575300000000     0.134246   
H24      H      0.168266666667     0.428300000000     0.075300000000     0.134246   
H24      H      0.168266666667     0.428300000000     0.575300000000     0.134246   
H24      H      0.168266666667     0.761633333333     0.075300000000     0.134246   
H24      H      0.168266666667     0.761633333333     0.575300000000     0.134246   
H24      H      0.501600000000     0.094966666667     0.075300000000     0.134246   
H24      H      0.501600000000     0.094966666667     0.575300000000     0.134246   
H24      H      0.501600000000     0.428300000000     0.075300000000     0.134246   
H24      H      0.501600000000     0.428300000000     0.575300000000     0.134246   
H24      H      0.501600000000     0.761633333333     0.075300000000     0.134246   
H24      H      0.501600000000     0.761633333333     0.575300000000     0.134246   
H24      H      0.834933333333     0.094966666667     0.075300000000     0.134246   
H24      H      0.834933333333     0.094966666667     0.575300000000     0.134246   
H24      H      0.834933333333     0.428300000000     0.075300000000     0.134246   
H24      H      0.834933333333     0.428300000000     0.575300000000     0.134246   
H24      H      0.834933333333     0.761633333333     0.075300000000     0.134246   
H24      H      0.834933333333     0.761633333333     0.575300000000     0.134246   
H25      H      0.113133333333     0.143700000000     0.167100000000     0.124744   
H25      H      0.113133333333     0.143700000000     0.667100000000     0.124744   
H25      H      0.113133333333     0.477033333333     0.167100000000     0.124744   
H25      H      0.113133333333     0.477033333333     0.667100000000     0.124744   
H25      H      0.113133333333     0.810366666667     0.167100000000     0.124744   
H25      H      0.113133333333     0.810366666667     0.667100000000     0.124744   
H25      H      0.446466666667     0.143700000000     0.167100000000     0.124744   
H25      H      0.446466666667     0.143700000000     0.667100000000     0.124744   
H25      H      0.446466666667     0.477033333333     0.167100000000     0.124744   
H25      H      0.446466666667     0.477033333333     0.667100000000     0.124744   
H25      H      0.446466666667     0.810366666667     0.167100000000     0.124744   
H25      H      0.446466666667     0.810366666667     0.667100000000     0.124744   
H25      H      0.779800000000     0.143700000000     0.167100000000     0.124744   
H25      H      0.779800000000     0.143700000000     0.667100000000     0.124744   
H25      H      0.779800000000     0.477033333333     0.167100000000     0.124744   
H25      H      0.779800000000     0.477033333333     0.667100000000     0.124744   
H25      H      0.779800000000     0.810366666667     0.167100000000     0.124744   
H25      H      0.779800000000     0.810366666667     0.667100000000     0.124744   
H26      H      0.227233333333     0.308033333333     0.207450000000     0.13429    
H26      H      0.227233333333     0.308033333333     0.707450000000     0.13429    
H26      H      0.227233333333     0.641366666667     0.207450000000     0.13429    
H26      H      0.227233333333     0.641366666667     0.707450000000     0.13429    
H26      H      0.227233333333     0.974700000000     0.207450000000     0.13429    
H26      H      0.227233333333     0.974700000000     0.707450000000     0.13429    
H26      H      0.560566666667     0.308033333333     0.207450000000     0.13429    
H26      H      0.560566666667     0.308033333333     0.707450000000     0.13429    
H26      H      0.560566666667     0.641366666667     0.207450000000     0.13429    
H26      H      0.560566666667     0.641366666667     0.707450000000     0.13429    
H26      H      0.560566666667     0.974700000000     0.207450000000     0.13429    
H26      H      0.560566666667     0.974700000000     0.707450000000     0.13429    
H26      H      0.893900000000     0.308033333333     0.207450000000     0.13429    
H26      H      0.893900000000     0.308033333333     0.707450000000     0.13429    
H26      H      0.893900000000     0.641366666667     0.207450000000     0.13429    
H26      H      0.893900000000     0.641366666667     0.707450000000     0.13429    
H26      H      0.893900000000     0.974700000000     0.207450000000     0.13429    
H26      H      0.893900000000     0.974700000000     0.707450000000     0.13429    
H27      H      0.038166666667     0.100400000000     0.261900000000     0.123082   
H27      H      0.038166666667     0.100400000000     0.761900000000     0.123082   
H27      H      0.038166666667     0.433733333333     0.261900000000     0.123082   
H27      H      0.038166666667     0.433733333333     0.761900000000     0.123082   
H27      H      0.038166666667     0.767066666667     0.261900000000     0.123082   
H27      H      0.038166666667     0.767066666667     0.761900000000     0.123082   
H27      H      0.371500000000     0.100400000000     0.261900000000     0.123082   
H27      H      0.371500000000     0.100400000000     0.761900000000     0.123082   
H27      H      0.371500000000     0.433733333333     0.261900000000     0.123082   
H27      H      0.371500000000     0.433733333333     0.761900000000     0.123082   
H27      H      0.371500000000     0.767066666667     0.261900000000     0.123082   
H27      H      0.371500000000     0.767066666667     0.761900000000     0.123082   
H27      H      0.704833333333     0.100400000000     0.261900000000     0.123082   
H27      H      0.704833333333     0.100400000000     0.761900000000     0.123082   
H27      H      0.704833333333     0.433733333333     0.261900000000     0.123082   
H27      H      0.704833333333     0.433733333333     0.761900000000     0.123082   
H27      H      0.704833333333     0.767066666667     0.261900000000     0.123082   
H27      H      0.704833333333     0.767066666667     0.761900000000     0.123082   
H28      H      0.105000000000     0.101300000000     0.261400000000     0.095254   
H28      H      0.105000000000     0.101300000000     0.761400000000     0.095254   
H28      H      0.105000000000     0.434633333333     0.261400000000     0.095254   
H28      H      0.105000000000     0.434633333333     0.761400000000     0.095254   
H28      H      0.105000000000     0.767966666667     0.261400000000     0.095254   
H28      H      0.105000000000     0.767966666667     0.761400000000     0.095254   
H28      H      0.438333333333     0.101300000000     0.261400000000     0.095254   
H28      H      0.438333333333     0.101300000000     0.761400000000     0.095254   
H28      H      0.438333333333     0.434633333333     0.261400000000     0.095254   
H28      H      0.438333333333     0.434633333333     0.761400000000     0.095254   
H28      H      0.438333333333     0.767966666667     0.261400000000     0.095254   
H28      H      0.438333333333     0.767966666667     0.761400000000     0.095254   
H28      H      0.771666666667     0.101300000000     0.261400000000     0.095254   
H28      H      0.771666666667     0.101300000000     0.761400000000     0.095254   
H28      H      0.771666666667     0.434633333333     0.261400000000     0.095254   
H28      H      0.771666666667     0.434633333333     0.761400000000     0.095254   
H28      H      0.771666666667     0.767966666667     0.261400000000     0.095254   
H28      H      0.771666666667     0.767966666667     0.761400000000     0.095254   
H29      H      0.238200000000     0.164800000000     0.174800000000     0.127473   
H29      H      0.238200000000     0.164800000000     0.674800000000     0.127473   
H29      H      0.238200000000     0.498133333333     0.174800000000     0.127473   
H29      H      0.238200000000     0.498133333333     0.674800000000     0.127473   
H29      H      0.238200000000     0.831466666667     0.174800000000     0.127473   
H29      H      0.238200000000     0.831466666667     0.674800000000     0.127473   
H29      H      0.571533333333     0.164800000000     0.174800000000     0.127473   
H29      H      0.571533333333     0.164800000000     0.674800000000     0.127473   
H29      H      0.571533333333     0.498133333333     0.174800000000     0.127473   
H29      H      0.571533333333     0.498133333333     0.674800000000     0.127473   
H29      H      0.571533333333     0.831466666667     0.174800000000     0.127473   
H29      H      0.571533333333     0.831466666667     0.674800000000     0.127473   
H29      H      0.904866666667     0.164800000000     0.174800000000     0.127473   
H29      H      0.904866666667     0.164800000000     0.674800000000     0.127473   
H29      H      0.904866666667     0.498133333333     0.174800000000     0.127473   
H29      H      0.904866666667     0.498133333333     0.674800000000     0.127473   
H29      H      0.904866666667     0.831466666667     0.174800000000     0.127473   
H29      H      0.904866666667     0.831466666667     0.674800000000     0.127473   
H30      H      0.305566666667     0.166266666667     0.172700000000     0.113519   
H30      H      0.305566666667     0.166266666667     0.672700000000     0.113519   
H30      H      0.305566666667     0.499600000000     0.172700000000     0.113519   
H30      H      0.305566666667     0.499600000000     0.672700000000     0.113519   
H30      H      0.305566666667     0.832933333333     0.172700000000     0.113519   
H30      H      0.305566666667     0.832933333333     0.672700000000     0.113519   
H30      H      0.638900000000     0.166266666667     0.172700000000     0.113519   
H30      H      0.638900000000     0.166266666667     0.672700000000     0.113519   
H30      H      0.638900000000     0.499600000000     0.172700000000     0.113519   
H30      H      0.638900000000     0.499600000000     0.672700000000     0.113519   
H30      H      0.638900000000     0.832933333333     0.172700000000     0.113519   
H30      H      0.638900000000     0.832933333333     0.672700000000     0.113519   
H30      H      0.972233333333     0.166266666667     0.172700000000     0.113519   
H30      H      0.972233333333     0.166266666667     0.672700000000     0.113519   
H30      H      0.972233333333     0.499600000000     0.172700000000     0.113519   
H30      H      0.972233333333     0.499600000000     0.672700000000     0.113519   
H30      H      0.972233333333     0.832933333333     0.172700000000     0.113519   
H30      H      0.972233333333     0.832933333333     0.672700000000     0.113519   
H31      H      0.167033333333     0.027433333333     0.077250000000     0.124771   
H31      H      0.167033333333     0.027433333333     0.577250000000     0.124771   
H31      H      0.167033333333     0.360766666667     0.077250000000     0.124771   
H31      H      0.167033333333     0.360766666667     0.577250000000     0.124771   
H31      H      0.167033333333     0.694100000000     0.077250000000     0.124771   
H31      H      0.167033333333     0.694100000000     0.577250000000     0.124771   
H31      H      0.500366666667     0.027433333333     0.077250000000     0.124771   
H31      H      0.500366666667     0.027433333333     0.577250000000     0.124771   
H31      H      0.500366666667     0.360766666667     0.077250000000     0.124771   
H31      H      0.500366666667     0.360766666667     0.577250000000     0.124771   
H31      H      0.500366666667     0.694100000000     0.077250000000     0.124771   
H31      H      0.500366666667     0.694100000000     0.577250000000     0.124771   
H31      H      0.833700000000     0.027433333333     0.077250000000     0.124771   
H31      H      0.833700000000     0.027433333333     0.577250000000     0.124771   
H31      H      0.833700000000     0.360766666667     0.077250000000     0.124771   
H31      H      0.833700000000     0.360766666667     0.577250000000     0.124771   
H31      H      0.833700000000     0.694100000000     0.077250000000     0.124771   
H31      H      0.833700000000     0.694100000000     0.577250000000     0.124771   
H32      H      0.254400000000     0.246900000000     0.180000000000     0.11907    
H32      H      0.254400000000     0.246900000000     0.680000000000     0.11907    
H32      H      0.254400000000     0.580233333333     0.180000000000     0.11907    
H32      H      0.254400000000     0.580233333333     0.680000000000     0.11907    
H32      H      0.254400000000     0.913566666667     0.180000000000     0.11907    
H32      H      0.254400000000     0.913566666667     0.680000000000     0.11907    
H32      H      0.587733333333     0.246900000000     0.180000000000     0.11907    
H32      H      0.587733333333     0.246900000000     0.680000000000     0.11907    
H32      H      0.587733333333     0.580233333333     0.180000000000     0.11907    
H32      H      0.587733333333     0.580233333333     0.680000000000     0.11907    
H32      H      0.587733333333     0.913566666667     0.180000000000     0.11907    
H32      H      0.587733333333     0.913566666667     0.680000000000     0.11907    
H32      H      0.921066666667     0.246900000000     0.180000000000     0.11907    
H32      H      0.921066666667     0.246900000000     0.680000000000     0.11907    
H32      H      0.921066666667     0.580233333333     0.180000000000     0.11907    
H32      H      0.921066666667     0.580233333333     0.680000000000     0.11907    
H32      H      0.921066666667     0.913566666667     0.180000000000     0.11907    
H32      H      0.921066666667     0.913566666667     0.680000000000     0.11907    
H33      H      0.073200000000     0.325666666667     0.002600000000     0.121188   
H33      H      0.073200000000     0.325666666667     0.502600000000     0.121188   
H33      H      0.073200000000     0.659000000000     0.002600000000     0.121188   
H33      H      0.073200000000     0.659000000000     0.502600000000     0.121188   
H33      H      0.073200000000     0.992333333333     0.002600000000     0.121188   
H33      H      0.073200000000     0.992333333333     0.502600000000     0.121188   
H33      H      0.406533333333     0.325666666667     0.002600000000     0.121188   
H33      H      0.406533333333     0.325666666667     0.502600000000     0.121188   
H33      H      0.406533333333     0.659000000000     0.002600000000     0.121188   
H33      H      0.406533333333     0.659000000000     0.502600000000     0.121188   
H33      H      0.406533333333     0.992333333333     0.002600000000     0.121188   
H33      H      0.406533333333     0.992333333333     0.502600000000     0.121188   
H33      H      0.739866666667     0.325666666667     0.002600000000     0.121188   
H33      H      0.739866666667     0.325666666667     0.502600000000     0.121188   
H33      H      0.739866666667     0.659000000000     0.002600000000     0.121188   
H33      H      0.739866666667     0.659000000000     0.502600000000     0.121188   
H33      H      0.739866666667     0.992333333333     0.002600000000     0.121188   
H33      H      0.739866666667     0.992333333333     0.502600000000     0.121188   
H34      H      0.100433333333     0.037833333333     0.011800000000     0.126974   
H34      H      0.100433333333     0.037833333333     0.511800000000     0.126974   
H34      H      0.100433333333     0.371166666667     0.011800000000     0.126974   
H34      H      0.100433333333     0.371166666667     0.511800000000     0.126974   
H34      H      0.100433333333     0.704500000000     0.011800000000     0.126974   
H34      H      0.100433333333     0.704500000000     0.511800000000     0.126974   
H34      H      0.433766666667     0.037833333333     0.011800000000     0.126974   
H34      H      0.433766666667     0.037833333333     0.511800000000     0.126974   
H34      H      0.433766666667     0.371166666667     0.011800000000     0.126974   
H34      H      0.433766666667     0.371166666667     0.511800000000     0.126974   
H34      H      0.433766666667     0.704500000000     0.011800000000     0.126974   
H34      H      0.433766666667     0.704500000000     0.511800000000     0.126974   
H34      H      0.767100000000     0.037833333333     0.011800000000     0.126974   
H34      H      0.767100000000     0.037833333333     0.511800000000     0.126974   
H34      H      0.767100000000     0.371166666667     0.011800000000     0.126974   
H34      H      0.767100000000     0.371166666667     0.511800000000     0.126974   
H34      H      0.767100000000     0.704500000000     0.011800000000     0.126974   
H34      H      0.767100000000     0.704500000000     0.511800000000     0.126974   
H35      H      0.078933333333     0.086433333333     0.320000000000     0.102216   
H35      H      0.078933333333     0.086433333333     0.820000000000     0.102216   
H35      H      0.078933333333     0.419766666667     0.320000000000     0.102216   
H35      H      0.078933333333     0.419766666667     0.820000000000     0.102216   
H35      H      0.078933333333     0.753100000000     0.320000000000     0.102216   
H35      H      0.078933333333     0.753100000000     0.820000000000     0.102216   
H35      H      0.412266666667     0.086433333333     0.320000000000     0.102216   
H35      H      0.412266666667     0.086433333333     0.820000000000     0.102216   
H35      H      0.412266666667     0.419766666667     0.320000000000     0.102216   
H35      H      0.412266666667     0.419766666667     0.820000000000     0.102216   
H35      H      0.412266666667     0.753100000000     0.320000000000     0.102216   
H35      H      0.412266666667     0.753100000000     0.820000000000     0.102216   
H35      H      0.745600000000     0.086433333333     0.320000000000     0.102216   
H35      H      0.745600000000     0.086433333333     0.820000000000     0.102216   
H35      H      0.745600000000     0.419766666667     0.320000000000     0.102216   
H35      H      0.745600000000     0.419766666667     0.820000000000     0.102216   
H35      H      0.745600000000     0.753100000000     0.320000000000     0.102216   
H35      H      0.745600000000     0.753100000000     0.820000000000     0.102216   
H36      H      0.106100000000     0.025300000000     0.292550000000     0.127761   
H36      H      0.106100000000     0.025300000000     0.792550000000     0.127761   
H36      H      0.106100000000     0.358633333333     0.292550000000     0.127761   
H36      H      0.106100000000     0.358633333333     0.792550000000     0.127761   
H36      H      0.106100000000     0.691966666667     0.292550000000     0.127761   
H36      H      0.106100000000     0.691966666667     0.792550000000     0.127761   
H36      H      0.439433333333     0.025300000000     0.292550000000     0.127761   
H36      H      0.439433333333     0.025300000000     0.792550000000     0.127761   
H36      H      0.439433333333     0.358633333333     0.292550000000     0.127761   
H36      H      0.439433333333     0.358633333333     0.792550000000     0.127761   
H36      H      0.439433333333     0.691966666667     0.292550000000     0.127761   
H36      H      0.439433333333     0.691966666667     0.792550000000     0.127761   
H36      H      0.772766666667     0.025300000000     0.292550000000     0.127761   
H36      H      0.772766666667     0.025300000000     0.792550000000     0.127761   
H36      H      0.772766666667     0.358633333333     0.292550000000     0.127761   
H36      H      0.772766666667     0.358633333333     0.792550000000     0.127761   
H36      H      0.772766666667     0.691966666667     0.292550000000     0.127761   
H36      H      0.772766666667     0.691966666667     0.792550000000     0.127761   
H37      H      0.091966666667     0.283533333333     0.379150000000     0.104487   
H37      H      0.091966666667     0.283533333333     0.879150000000     0.104487   
H37      H      0.091966666667     0.616866666667     0.379150000000     0.104487   
H37      H      0.091966666667     0.616866666667     0.879150000000     0.104487   
H37      H      0.091966666667     0.950200000000     0.379150000000     0.104487   
H37      H      0.091966666667     0.950200000000     0.879150000000     0.104487   
H37      H      0.425300000000     0.283533333333     0.379150000000     0.104487   
H37      H      0.425300000000     0.283533333333     0.879150000000     0.104487   
H37      H      0.425300000000     0.616866666667     0.379150000000     0.104487   
H37      H      0.425300000000     0.616866666667     0.879150000000     0.104487   
H37      H      0.425300000000     0.950200000000     0.379150000000     0.104487   
H37      H      0.425300000000     0.950200000000     0.879150000000     0.104487   
H37      H      0.758633333333     0.283533333333     0.379150000000     0.104487   
H37      H      0.758633333333     0.283533333333     0.879150000000     0.104487   
H37      H      0.758633333333     0.616866666667     0.379150000000     0.104487   
H37      H      0.758633333333     0.616866666667     0.879150000000     0.104487   
H37      H      0.758633333333     0.950200000000     0.379150000000     0.104487   
H37      H      0.758633333333     0.950200000000     0.879150000000     0.104487   
H38      H      0.061500000000     0.011833333333     0.406100000000     0.126276   
H38      H      0.061500000000     0.011833333333     0.906100000000     0.126276   
H38      H      0.061500000000     0.345166666667     0.406100000000     0.126276   
H38      H      0.061500000000     0.345166666667     0.906100000000     0.126276   
H38      H      0.061500000000     0.678500000000     0.406100000000     0.126276   
H38      H      0.061500000000     0.678500000000     0.906100000000     0.126276   
H38      H      0.394833333333     0.011833333333     0.406100000000     0.126276   
H38      H      0.394833333333     0.011833333333     0.906100000000     0.126276   
H38      H      0.394833333333     0.345166666667     0.406100000000     0.126276   
H38      H      0.394833333333     0.345166666667     0.906100000000     0.126276   
H38      H      0.394833333333     0.678500000000     0.406100000000     0.126276   
H38      H      0.394833333333     0.678500000000     0.906100000000     0.126276   
H38      H      0.728166666667     0.011833333333     0.406100000000     0.126276   
H38      H      0.728166666667     0.011833333333     0.906100000000     0.126276   
H38      H      0.728166666667     0.345166666667     0.406100000000     0.126276   
H38      H      0.728166666667     0.345166666667     0.906100000000     0.126276   
H38      H      0.728166666667     0.678500000000     0.406100000000     0.126276   
H38      H      0.728166666667     0.678500000000     0.906100000000     0.126276   
H39      H      0.244233333333     0.119033333333     0.401700000000     0.104319   
H39      H      0.244233333333     0.119033333333     0.901700000000     0.104319   
H39      H      0.244233333333     0.452366666667     0.401700000000     0.104319   
H39      H      0.244233333333     0.452366666667     0.901700000000     0.104319   
H39      H      0.244233333333     0.785700000000     0.401700000000     0.104319   
H39      H      0.244233333333     0.785700000000     0.901700000000     0.104319   
H39      H      0.577566666667     0.119033333333     0.401700000000     0.104319   
H39      H      0.577566666667     0.119033333333     0.901700000000     0.104319   
H39      H      0.577566666667     0.452366666667     0.401700000000     0.104319   
H39      H      0.577566666667     0.452366666667     0.901700000000     0.104319   
H39      H      0.577566666667     0.785700000000     0.401700000000     0.104319   
H39      H      0.577566666667     0.785700000000     0.901700000000     0.104319   
H39      H      0.910900000000     0.119033333333     0.401700000000     0.104319   
H39      H      0.910900000000     0.119033333333     0.901700000000     0.104319   
H39      H      0.910900000000     0.452366666667     0.401700000000     0.104319   
H39      H      0.910900000000     0.452366666667     0.901700000000     0.104319   
H39      H      0.910900000000     0.785700000000     0.401700000000     0.104319   
H39      H      0.910900000000     0.785700000000     0.901700000000     0.104319   
H40      H      0.313266666667     0.091433333333     0.371150000000     0.092985   
H40      H      0.313266666667     0.091433333333     0.871150000000     0.092985   
H40      H      0.313266666667     0.424766666667     0.371150000000     0.092985   
H40      H      0.313266666667     0.424766666667     0.871150000000     0.092985   
H40      H      0.313266666667     0.758100000000     0.371150000000     0.092985   
H40      H      0.313266666667     0.758100000000     0.871150000000     0.092985   
H40      H      0.646600000000     0.091433333333     0.371150000000     0.092985   
H40      H      0.646600000000     0.091433333333     0.871150000000     0.092985   
H40      H      0.646600000000     0.424766666667     0.371150000000     0.092985   
H40      H      0.646600000000     0.424766666667     0.871150000000     0.092985   
H40      H      0.646600000000     0.758100000000     0.371150000000     0.092985   
H40      H      0.646600000000     0.758100000000     0.871150000000     0.092985   
H40      H      0.979933333333     0.091433333333     0.371150000000     0.092985   
H40      H      0.979933333333     0.091433333333     0.871150000000     0.092985   
H40      H      0.979933333333     0.424766666667     0.371150000000     0.092985   
H40      H      0.979933333333     0.424766666667     0.871150000000     0.092985   
H40      H      0.979933333333     0.758100000000     0.371150000000     0.092985   
H40      H      0.979933333333     0.758100000000     0.871150000000     0.092985   
H41      H      0.031166666667     0.121100000000     0.435850000000     0.121975   
H41      H      0.031166666667     0.121100000000     0.935850000000     0.121975   
H41      H      0.031166666667     0.454433333333     0.435850000000     0.121975   
H41      H      0.031166666667     0.454433333333     0.935850000000     0.121975   
H41      H      0.031166666667     0.787766666667     0.435850000000     0.121975   
H41      H      0.031166666667     0.787766666667     0.935850000000     0.121975   
H41      H      0.364500000000     0.121100000000     0.435850000000     0.121975   
H41      H      0.364500000000     0.121100000000     0.935850000000     0.121975   
H41      H      0.364500000000     0.454433333333     0.435850000000     0.121975   
H41      H      0.364500000000     0.454433333333     0.935850000000     0.121975   
H41      H      0.364500000000     0.787766666667     0.435850000000     0.121975   
H41      H      0.364500000000     0.787766666667     0.935850000000     0.121975   
H41      H      0.697833333333     0.121100000000     0.435850000000     0.121975   
H41      H      0.697833333333     0.121100000000     0.935850000000     0.121975   
H41      H      0.697833333333     0.454433333333     0.435850000000     0.121975   
H41      H      0.697833333333     0.454433333333     0.935850000000     0.121975   
H41      H      0.697833333333     0.787766666667     0.435850000000     0.121975   
H41      H      0.697833333333     0.787766666667     0.935850000000     0.121975   
H42      H      0.295633333333     0.145866666667     0.468250000000     0.094663   
H42      H      0.295633333333     0.145866666667     0.968250000000     0.094663   
H42      H      0.295633333333     0.479200000000     0.468250000000     0.094663   
H42      H      0.295633333333     0.479200000000     0.968250000000     0.094663   
H42      H      0.295633333333     0.812533333333     0.468250000000     0.094663   
H42      H      0.295633333333     0.812533333333     0.968250000000     0.094663   
H42      H      0.628966666667     0.145866666667     0.468250000000     0.094663   
H42      H      0.628966666667     0.145866666667     0.968250000000     0.094663   
H42      H      0.628966666667     0.479200000000     0.468250000000     0.094663   
H42      H      0.628966666667     0.479200000000     0.968250000000     0.094663   
H42      H      0.628966666667     0.812533333333     0.468250000000     0.094663   
H42      H      0.628966666667     0.812533333333     0.968250000000     0.094663   
H42      H      0.962300000000     0.145866666667     0.468250000000     0.094663   
H42      H      0.962300000000     0.145866666667     0.968250000000     0.094663   
H42      H      0.962300000000     0.479200000000     0.468250000000     0.094663   
H42      H      0.962300000000     0.479200000000     0.968250000000     0.094663   
H42      H      0.962300000000     0.812533333333     0.468250000000     0.094663   
H42      H      0.962300000000     0.812533333333     0.968250000000     0.094663   
H43      H      0.212466666667     0.302366666667     0.313950000000     0.105306   
H43      H      0.212466666667     0.302366666667     0.813950000000     0.105306   
H43      H      0.212466666667     0.635700000000     0.313950000000     0.105306   
H43      H      0.212466666667     0.635700000000     0.813950000000     0.105306   
H43      H      0.212466666667     0.969033333333     0.313950000000     0.105306   
H43      H      0.212466666667     0.969033333333     0.813950000000     0.105306   
H43      H      0.545800000000     0.302366666667     0.313950000000     0.105306   
H43      H      0.545800000000     0.302366666667     0.813950000000     0.105306   
H43      H      0.545800000000     0.635700000000     0.313950000000     0.105306   
H43      H      0.545800000000     0.635700000000     0.813950000000     0.105306   
H43      H      0.545800000000     0.969033333333     0.313950000000     0.105306   
H43      H      0.545800000000     0.969033333333     0.813950000000     0.105306   
H43      H      0.879133333333     0.302366666667     0.313950000000     0.105306   
H43      H      0.879133333333     0.302366666667     0.813950000000     0.105306   
H43      H      0.879133333333     0.635700000000     0.313950000000     0.105306   
H43      H      0.879133333333     0.635700000000     0.813950000000     0.105306   
H43      H      0.879133333333     0.969033333333     0.313950000000     0.105306   
H43      H      0.879133333333     0.969033333333     0.813950000000     0.105306   
H44      H      0.187600000000     0.037466666667     0.281900000000     0.125452   
H44      H      0.187600000000     0.037466666667     0.781900000000     0.125452   
H44      H      0.187600000000     0.370800000000     0.281900000000     0.125452   
H44      H      0.187600000000     0.370800000000     0.781900000000     0.125452   
H44      H      0.187600000000     0.704133333333     0.281900000000     0.125452   
H44      H      0.187600000000     0.704133333333     0.781900000000     0.125452   
H44      H      0.520933333333     0.037466666667     0.281900000000     0.125452   
H44      H      0.520933333333     0.037466666667     0.781900000000     0.125452   
H44      H      0.520933333333     0.370800000000     0.281900000000     0.125452   
H44      H      0.520933333333     0.370800000000     0.781900000000     0.125452   
H44      H      0.520933333333     0.704133333333     0.281900000000     0.125452   
H44      H      0.520933333333     0.704133333333     0.781900000000     0.125452   
H44      H      0.854266666667     0.037466666667     0.281900000000     0.125452   
H44      H      0.854266666667     0.037466666667     0.781900000000     0.125452   
H44      H      0.854266666667     0.370800000000     0.281900000000     0.125452   
H44      H      0.854266666667     0.370800000000     0.781900000000     0.125452   
H44      H      0.854266666667     0.704133333333     0.281900000000     0.125452   
H44      H      0.854266666667     0.704133333333     0.781900000000     0.125452   
H45      H      0.100900000000     0.104966666667     0.011450000000     0.093582   
H45      H      0.100900000000     0.104966666667     0.511450000000     0.093582   
H45      H      0.100900000000     0.438300000000     0.011450000000     0.093582   
H45      H      0.100900000000     0.438300000000     0.511450000000     0.093582   
H45      H      0.100900000000     0.771633333333     0.011450000000     0.093582   
H45      H      0.100900000000     0.771633333333     0.511450000000     0.093582   
H45      H      0.434233333333     0.104966666667     0.011450000000     0.093582   
H45      H      0.434233333333     0.104966666667     0.511450000000     0.093582   
H45      H      0.434233333333     0.438300000000     0.011450000000     0.093582   
H45      H      0.434233333333     0.438300000000     0.511450000000     0.093582   
H45      H      0.434233333333     0.771633333333     0.011450000000     0.093582   
H45      H      0.434233333333     0.771633333333     0.511450000000     0.093582   
H45      H      0.767566666667     0.104966666667     0.011450000000     0.093582   
H45      H      0.767566666667     0.104966666667     0.511450000000     0.093582   
H45      H      0.767566666667     0.438300000000     0.011450000000     0.093582   
H45      H      0.767566666667     0.438300000000     0.511450000000     0.093582   
H45      H      0.767566666667     0.771633333333     0.011450000000     0.093582   
H45      H      0.767566666667     0.771633333333     0.511450000000     0.093582   
H46      H      0.241766666667     0.020100000000     0.379200000000     0.131662   
H46      H      0.241766666667     0.020100000000     0.879200000000     0.131662   
H46      H      0.241766666667     0.353433333333     0.379200000000     0.131662   
H46      H      0.241766666667     0.353433333333     0.879200000000     0.131662   
H46      H      0.241766666667     0.686766666667     0.379200000000     0.131662   
H46      H      0.241766666667     0.686766666667     0.879200000000     0.131662   
H46      H      0.575100000000     0.020100000000     0.379200000000     0.131662   
H46      H      0.575100000000     0.020100000000     0.879200000000     0.131662   
H46      H      0.575100000000     0.353433333333     0.379200000000     0.131662   
H46      H      0.575100000000     0.353433333333     0.879200000000     0.131662   
H46      H      0.575100000000     0.686766666667     0.379200000000     0.131662   
H46      H      0.575100000000     0.686766666667     0.879200000000     0.131662   
H46      H      0.908433333333     0.020100000000     0.379200000000     0.131662   
H46      H      0.908433333333     0.020100000000     0.879200000000     0.131662   
H46      H      0.908433333333     0.353433333333     0.379200000000     0.131662   
H46      H      0.908433333333     0.353433333333     0.879200000000     0.131662   
H46      H      0.908433333333     0.686766666667     0.379200000000     0.131662   
H46      H      0.908433333333     0.686766666667     0.879200000000     0.131662   
H47      H      0.308033333333     0.227200000000     0.457450000000     0.125916   
H47      H      0.308033333333     0.227200000000     0.957450000000     0.125916   
H47      H      0.308033333333     0.560533333333     0.457450000000     0.125916   
H47      H      0.308033333333     0.560533333333     0.957450000000     0.125916   
H47      H      0.308033333333     0.893866666667     0.457450000000     0.125916   
H47      H      0.308033333333     0.893866666667     0.957450000000     0.125916   
H47      H      0.641366666667     0.227200000000     0.457450000000     0.125916   
H47      H      0.641366666667     0.227200000000     0.957450000000     0.125916   
H47      H      0.641366666667     0.560533333333     0.457450000000     0.125916   
H47      H      0.641366666667     0.560533333333     0.957450000000     0.125916   
H47      H      0.641366666667     0.893866666667     0.457450000000     0.125916   
H47      H      0.641366666667     0.893866666667     0.957450000000     0.125916   
H47      H      0.974700000000     0.227200000000     0.457450000000     0.125916   
H47      H      0.974700000000     0.227200000000     0.957450000000     0.125916   
H47      H      0.974700000000     0.560533333333     0.457450000000     0.125916   
H47      H      0.974700000000     0.560533333333     0.957450000000     0.125916   
H47      H      0.974700000000     0.893866666667     0.457450000000     0.125916   
H47      H      0.974700000000     0.893866666667     0.957450000000     0.125916   
H48      H      0.247033333333     0.254366666667     0.430000000000    -0.184372   
H48      H      0.247033333333     0.254366666667     0.930000000000    -0.184372   
H48      H      0.247033333333     0.587700000000     0.430000000000    -0.184372   
H48      H      0.247033333333     0.587700000000     0.930000000000    -0.184372   
H48      H      0.247033333333     0.921033333333     0.430000000000    -0.184372   
H48      H      0.247033333333     0.921033333333     0.930000000000    -0.184372   
H48      H      0.580366666667     0.254366666667     0.430000000000    -0.184372   
H48      H      0.580366666667     0.254366666667     0.930000000000    -0.184372   
H48      H      0.580366666667     0.587700000000     0.430000000000    -0.184372   
H48      H      0.580366666667     0.587700000000     0.930000000000    -0.184372   
H48      H      0.580366666667     0.921033333333     0.430000000000    -0.184372   
H48      H      0.580366666667     0.921033333333     0.930000000000    -0.184372   
H48      H      0.913700000000     0.254366666667     0.430000000000    -0.184372   
H48      H      0.913700000000     0.254366666667     0.930000000000    -0.184372   
H48      H      0.913700000000     0.587700000000     0.430000000000    -0.184372   
H48      H      0.913700000000     0.587700000000     0.930000000000    -0.184372   
H48      H      0.913700000000     0.921033333333     0.430000000000    -0.184372   
H48      H      0.913700000000     0.921033333333     0.930000000000    -0.184372   
H49      H      0.215100000000     0.089200000000     0.347950000000    -0.185318   
H49      H      0.215100000000     0.089200000000     0.847950000000    -0.185318   
H49      H      0.215100000000     0.422533333333     0.347950000000    -0.185318   
H49      H      0.215100000000     0.422533333333     0.847950000000    -0.185318   
H49      H      0.215100000000     0.755866666667     0.347950000000    -0.185318   
H49      H      0.215100000000     0.755866666667     0.847950000000    -0.185318   
H49      H      0.548433333333     0.089200000000     0.347950000000    -0.185318   
H49      H      0.548433333333     0.089200000000     0.847950000000    -0.185318   
H49      H      0.548433333333     0.422533333333     0.347950000000    -0.185318   
H49      H      0.548433333333     0.422533333333     0.847950000000    -0.185318   
H49      H      0.548433333333     0.755866666667     0.347950000000    -0.185318   
H49      H      0.548433333333     0.755866666667     0.847950000000    -0.185318   
H49      H      0.881766666667     0.089200000000     0.347950000000    -0.185318   
H49      H      0.881766666667     0.089200000000     0.847950000000    -0.185318   
H49      H      0.881766666667     0.422533333333     0.347950000000    -0.185318   
H49      H      0.881766666667     0.422533333333     0.847950000000    -0.185318   
H49      H      0.881766666667     0.755866666667     0.347950000000    -0.185318   
H49      H      0.881766666667     0.755866666667     0.847950000000    -0.185318   
H50      H      0.049900000000     0.241200000000     0.370850000000    -0.195001   
H50      H      0.049900000000     0.241200000000     0.870850000000    -0.195001   
H50      H      0.049900000000     0.574533333333     0.370850000000    -0.195001   
H50      H      0.049900000000     0.574533333333     0.870850000000    -0.195001   
H50      H      0.049900000000     0.907866666667     0.370850000000    -0.195001   
H50      H      0.049900000000     0.907866666667     0.870850000000    -0.195001   
H50      H      0.383233333333     0.241200000000     0.370850000000    -0.195001   
H50      H      0.383233333333     0.241200000000     0.870850000000    -0.195001   
H50      H      0.383233333333     0.574533333333     0.370850000000    -0.195001   
H50      H      0.383233333333     0.574533333333     0.870850000000    -0.195001   
H50      H      0.383233333333     0.907866666667     0.370850000000    -0.195001   
H50      H      0.383233333333     0.907866666667     0.870850000000    -0.195001   
H50      H      0.716566666667     0.241200000000     0.370850000000    -0.195001   
H50      H      0.716566666667     0.241200000000     0.870850000000    -0.195001   
H50      H      0.716566666667     0.574533333333     0.370850000000    -0.195001   
H50      H      0.716566666667     0.574533333333     0.870850000000    -0.195001   
H50      H      0.716566666667     0.907866666667     0.370850000000    -0.195001   
H50      H      0.716566666667     0.907866666667     0.870850000000    -0.195001   
H51      H      0.143766666667     0.046633333333     0.414850000000    -0.18533    
H51      H      0.143766666667     0.046633333333     0.914850000000    -0.18533    
H51      H      0.143766666667     0.379966666667     0.414850000000    -0.18533    
H51      H      0.143766666667     0.379966666667     0.914850000000    -0.18533    
H51      H      0.143766666667     0.713300000000     0.414850000000    -0.18533    
H51      H      0.143766666667     0.713300000000     0.914850000000    -0.18533    
H51      H      0.477100000000     0.046633333333     0.414850000000    -0.18533    
H51      H      0.477100000000     0.046633333333     0.914850000000    -0.18533    
H51      H      0.477100000000     0.379966666667     0.414850000000    -0.18533    
H51      H      0.477100000000     0.379966666667     0.914850000000    -0.18533    
H51      H      0.477100000000     0.713300000000     0.414850000000    -0.18533    
H51      H      0.477100000000     0.713300000000     0.914850000000    -0.18533    
H51      H      0.810433333333     0.046633333333     0.414850000000    -0.18533    
H51      H      0.810433333333     0.046633333333     0.914850000000    -0.18533    
H51      H      0.810433333333     0.379966666667     0.414850000000    -0.18533    
H51      H      0.810433333333     0.379966666667     0.914850000000    -0.18533    
H51      H      0.810433333333     0.713300000000     0.414850000000    -0.18533    
H51      H      0.810433333333     0.713300000000     0.914850000000    -0.18533    
H52      H      0.143433333333     0.113733333333     0.417300000000    -0.195202   
H52      H      0.143433333333     0.113733333333     0.917300000000    -0.195202   
H52      H      0.143433333333     0.447066666667     0.417300000000    -0.195202   
H52      H      0.143433333333     0.447066666667     0.917300000000    -0.195202   
H52      H      0.143433333333     0.780400000000     0.417300000000    -0.195202   
H52      H      0.143433333333     0.780400000000     0.917300000000    -0.195202   
H52      H      0.476766666667     0.113733333333     0.417300000000    -0.195202   
H52      H      0.476766666667     0.113733333333     0.917300000000    -0.195202   
H52      H      0.476766666667     0.447066666667     0.417300000000    -0.195202   
H52      H      0.476766666667     0.447066666667     0.917300000000    -0.195202   
H52      H      0.476766666667     0.780400000000     0.417300000000    -0.195202   
H52      H      0.476766666667     0.780400000000     0.917300000000    -0.195202   
H52      H      0.810100000000     0.113733333333     0.417300000000    -0.195202   
H52      H      0.810100000000     0.113733333333     0.917300000000    -0.195202   
H52      H      0.810100000000     0.447066666667     0.417300000000    -0.195202   
H52      H      0.810100000000     0.447066666667     0.917300000000    -0.195202   
H52      H      0.810100000000     0.780400000000     0.417300000000    -0.195202   
H52      H      0.810100000000     0.780400000000     0.917300000000    -0.195202   
H53      H      0.321200000000     0.271666666667     0.343950000000    -0.184394   
H53      H      0.321200000000     0.271666666667     0.843950000000    -0.184394   
H53      H      0.321200000000     0.605000000000     0.343950000000    -0.184394   
H53      H      0.321200000000     0.605000000000     0.843950000000    -0.184394   
H53      H      0.321200000000     0.938333333333     0.343950000000    -0.184394   
H53      H      0.321200000000     0.938333333333     0.843950000000    -0.184394   
H53      H      0.654533333333     0.271666666667     0.343950000000    -0.184394   
H53      H      0.654533333333     0.271666666667     0.843950000000    -0.184394   
H53      H      0.654533333333     0.605000000000     0.343950000000    -0.184394   
H53      H      0.654533333333     0.605000000000     0.843950000000    -0.184394   
H53      H      0.654533333333     0.938333333333     0.343950000000    -0.184394   
H53      H      0.654533333333     0.938333333333     0.843950000000    -0.184394   
H53      H      0.987866666667     0.271666666667     0.343950000000    -0.184394   
H53      H      0.987866666667     0.271666666667     0.843950000000    -0.184394   
H53      H      0.987866666667     0.605000000000     0.343950000000    -0.184394   
H53      H      0.987866666667     0.605000000000     0.843950000000    -0.184394   
H53      H      0.987866666667     0.938333333333     0.343950000000    -0.184394   
H53      H      0.987866666667     0.938333333333     0.843950000000    -0.184394   
H54      H      0.165066666667     0.238366666667     0.424700000000    -0.195023   
H54      H      0.165066666667     0.238366666667     0.924700000000    -0.195023   
H54      H      0.165066666667     0.571700000000     0.424700000000    -0.195023   
H54      H      0.165066666667     0.571700000000     0.924700000000    -0.195023   
H54      H      0.165066666667     0.905033333333     0.424700000000    -0.195023   
H54      H      0.165066666667     0.905033333333     0.924700000000    -0.195023   
H54      H      0.498400000000     0.238366666667     0.424700000000    -0.195023   
H54      H      0.498400000000     0.238366666667     0.924700000000    -0.195023   
H54      H      0.498400000000     0.571700000000     0.424700000000    -0.195023   
H54      H      0.498400000000     0.571700000000     0.924700000000    -0.195023   
H54      H      0.498400000000     0.905033333333     0.424700000000    -0.195023   
H54      H      0.498400000000     0.905033333333     0.924700000000    -0.195023   
H54      H      0.831733333333     0.238366666667     0.424700000000    -0.195023   
H54      H      0.831733333333     0.238366666667     0.924700000000    -0.195023   
H54      H      0.831733333333     0.571700000000     0.424700000000    -0.195023   
H54      H      0.831733333333     0.571700000000     0.924700000000    -0.195023   
H54      H      0.831733333333     0.905033333333     0.424700000000    -0.195023   
H54      H      0.831733333333     0.905033333333     0.924700000000    -0.195023   
H55      H      0.166300000000     0.305900000000     0.422750000000    -0.195191   
H55      H      0.166300000000     0.305900000000     0.922750000000    -0.195191   
H55      H      0.166300000000     0.639233333333     0.422750000000    -0.195191   
H55      H      0.166300000000     0.639233333333     0.922750000000    -0.195191   
H55      H      0.166300000000     0.972566666667     0.422750000000    -0.195191   
H55      H      0.166300000000     0.972566666667     0.922750000000    -0.195191   
H55      H      0.499633333333     0.305900000000     0.422750000000    -0.195191   
H55      H      0.499633333333     0.305900000000     0.922750000000    -0.195191   
H55      H      0.499633333333     0.639233333333     0.422750000000    -0.195191   
H55      H      0.499633333333     0.639233333333     0.922750000000    -0.195191   
H55      H      0.499633333333     0.972566666667     0.422750000000    -0.195191   
H55      H      0.499633333333     0.972566666667     0.922750000000    -0.195191   
H55      H      0.832966666667     0.305900000000     0.422750000000    -0.195191   
H55      H      0.832966666667     0.305900000000     0.922750000000    -0.195191   
H55      H      0.832966666667     0.639233333333     0.422750000000    -0.195191   
H55      H      0.832966666667     0.639233333333     0.922750000000    -0.195191   
H55      H      0.832966666667     0.972566666667     0.422750000000    -0.195191   
H55      H      0.832966666667     0.972566666667     0.922750000000    -0.195191   
H56      H      0.220200000000     0.189633333333     0.332900000000     0.775232   
H56      H      0.220200000000     0.189633333333     0.832900000000     0.775232   
H56      H      0.220200000000     0.522966666667     0.332900000000     0.775232   
H56      H      0.220200000000     0.522966666667     0.832900000000     0.775232   
H56      H      0.220200000000     0.856300000000     0.332900000000     0.775232   
H56      H      0.220200000000     0.856300000000     0.832900000000     0.775232   
H56      H      0.553533333333     0.189633333333     0.332900000000     0.775232   
H56      H      0.553533333333     0.189633333333     0.832900000000     0.775232   
H56      H      0.553533333333     0.522966666667     0.332900000000     0.775232   
H56      H      0.553533333333     0.522966666667     0.832900000000     0.775232   
H56      H      0.553533333333     0.856300000000     0.332900000000     0.775232   
H56      H      0.553533333333     0.856300000000     0.832900000000     0.775232   
H56      H      0.886866666667     0.189633333333     0.332900000000     0.775232   
H56      H      0.886866666667     0.189633333333     0.832900000000     0.775232   
H56      H      0.886866666667     0.522966666667     0.332900000000     0.775232   
H56      H      0.886866666667     0.522966666667     0.832900000000     0.775232   
H56      H      0.886866666667     0.856300000000     0.332900000000     0.775232   
H56      H      0.886866666667     0.856300000000     0.832900000000     0.775232   
H57      H      0.074166666667     0.258066666667     0.001650000000     0.772863   
H57      H      0.074166666667     0.258066666667     0.501650000000     0.772863   
H57      H      0.074166666667     0.591400000000     0.001650000000     0.772863   
H57      H      0.074166666667     0.591400000000     0.501650000000     0.772863   
H57      H      0.074166666667     0.924733333333     0.001650000000     0.772863   
H57      H      0.074166666667     0.924733333333     0.501650000000     0.772863   
H57      H      0.407500000000     0.258066666667     0.001650000000     0.772863   
H57      H      0.407500000000     0.258066666667     0.501650000000     0.772863   
H57      H      0.407500000000     0.591400000000     0.001650000000     0.772863   
H57      H      0.407500000000     0.591400000000     0.501650000000     0.772863   
H57      H      0.407500000000     0.924733333333     0.001650000000     0.772863   
H57      H      0.407500000000     0.924733333333     0.501650000000     0.772863   
H57      H      0.740833333333     0.258066666667     0.001650000000     0.772863   
H57      H      0.740833333333     0.258066666667     0.501650000000     0.772863   
H57      H      0.740833333333     0.591400000000     0.001650000000     0.772863   
H57      H      0.740833333333     0.591400000000     0.501650000000     0.772863   
H57      H      0.740833333333     0.924733333333     0.001650000000     0.772863   
H57      H      0.740833333333     0.924733333333     0.501650000000     0.772863   
H58      H      0.295166666667     0.232933333333     0.238100000000     0.7753     
H58      H      0.295166666667     0.232933333333     0.738100000000     0.7753     
H58      H      0.295166666667     0.566266666667     0.238100000000     0.7753     
H58      H      0.295166666667     0.566266666667     0.738100000000     0.7753     
H58      H      0.295166666667     0.899600000000     0.238100000000     0.7753     
H58      H      0.295166666667     0.899600000000     0.738100000000     0.7753     
H58      H      0.628500000000     0.232933333333     0.238100000000     0.7753     
H58      H      0.628500000000     0.232933333333     0.738100000000     0.7753     
H58      H      0.628500000000     0.566266666667     0.238100000000     0.7753     
H58      H      0.628500000000     0.566266666667     0.738100000000     0.7753     
H58      H      0.628500000000     0.899600000000     0.238100000000     0.7753     
H58      H      0.628500000000     0.899600000000     0.738100000000     0.7753     
H58      H      0.961833333333     0.232933333333     0.238100000000     0.7753     
H58      H      0.961833333333     0.232933333333     0.738100000000     0.7753     
H58      H      0.961833333333     0.566266666667     0.238100000000     0.7753     
H58      H      0.961833333333     0.566266666667     0.738100000000     0.7753     
H58      H      0.961833333333     0.899600000000     0.238100000000     0.7753     
H58      H      0.961833333333     0.899600000000     0.738100000000     0.7753     
H59      H      0.228333333333     0.232033333333     0.238600000000     0.772885   
H59      H      0.228333333333     0.232033333333     0.738600000000     0.772885   
H59      H      0.228333333333     0.565366666667     0.238600000000     0.772885   
H59      H      0.228333333333     0.565366666667     0.738600000000     0.772885   
H59      H      0.228333333333     0.898700000000     0.238600000000     0.772885   
H59      H      0.228333333333     0.898700000000     0.738600000000     0.772885   
H59      H      0.561666666667     0.232033333333     0.238600000000     0.772885   
H59      H      0.561666666667     0.232033333333     0.738600000000     0.772885   
H59      H      0.561666666667     0.565366666667     0.238600000000     0.772885   
H59      H      0.561666666667     0.565366666667     0.738600000000     0.772885   
H59      H      0.561666666667     0.898700000000     0.238600000000     0.772885   
H59      H      0.561666666667     0.898700000000     0.738600000000     0.772885   
H59      H      0.895000000000     0.232033333333     0.238600000000     0.772885   
H59      H      0.895000000000     0.232033333333     0.738600000000     0.772885   
H59      H      0.895000000000     0.565366666667     0.238600000000     0.772885   
H59      H      0.895000000000     0.565366666667     0.738600000000     0.772885   
H59      H      0.895000000000     0.898700000000     0.238600000000     0.772885   
H59      H      0.895000000000     0.898700000000     0.738600000000     0.772885   
H60      H      0.095133333333     0.168533333333     0.325200000000    -0.547475   
H60      H      0.095133333333     0.168533333333     0.825200000000    -0.547475   
H60      H      0.095133333333     0.501866666667     0.325200000000    -0.547475   
H60      H      0.095133333333     0.501866666667     0.825200000000    -0.547475   
H60      H      0.095133333333     0.835200000000     0.325200000000    -0.547475   
H60      H      0.095133333333     0.835200000000     0.825200000000    -0.547475   
H60      H      0.428466666667     0.168533333333     0.325200000000    -0.547475   
H60      H      0.428466666667     0.168533333333     0.825200000000    -0.547475   
H60      H      0.428466666667     0.501866666667     0.325200000000    -0.547475   
H60      H      0.428466666667     0.501866666667     0.825200000000    -0.547475   
H60      H      0.428466666667     0.835200000000     0.325200000000    -0.547475   
H60      H      0.428466666667     0.835200000000     0.825200000000    -0.547475   
H60      H      0.761800000000     0.168533333333     0.325200000000    -0.547475   
H60      H      0.761800000000     0.168533333333     0.825200000000    -0.547475   
H60      H      0.761800000000     0.501866666667     0.325200000000    -0.547475   
H60      H      0.761800000000     0.501866666667     0.825200000000    -0.547475   
H60      H      0.761800000000     0.835200000000     0.325200000000    -0.547475   
H60      H      0.761800000000     0.835200000000     0.825200000000    -0.547475   
H61      H      0.027766666667     0.167066666667     0.327300000000    -0.528322   
H61      H      0.027766666667     0.167066666667     0.827300000000    -0.528322   
H61      H      0.027766666667     0.500400000000     0.327300000000    -0.528322   
H61      H      0.027766666667     0.500400000000     0.827300000000    -0.528322   
H61      H      0.027766666667     0.833733333333     0.327300000000    -0.528322   
H61      H      0.027766666667     0.833733333333     0.827300000000    -0.528322   
H61      H      0.361100000000     0.167066666667     0.327300000000    -0.528322   
H61      H      0.361100000000     0.167066666667     0.827300000000    -0.528322   
H61      H      0.361100000000     0.500400000000     0.327300000000    -0.528322   
H61      H      0.361100000000     0.500400000000     0.827300000000    -0.528322   
H61      H      0.361100000000     0.833733333333     0.327300000000    -0.528322   
H61      H      0.361100000000     0.833733333333     0.827300000000    -0.528322   
H61      H      0.694433333333     0.167066666667     0.327300000000    -0.528322   
H61      H      0.694433333333     0.167066666667     0.827300000000    -0.528322   
H61      H      0.694433333333     0.500400000000     0.327300000000    -0.528322   
H61      H      0.694433333333     0.500400000000     0.827300000000    -0.528322   
H61      H      0.694433333333     0.833733333333     0.327300000000    -0.528322   
H61      H      0.694433333333     0.833733333333     0.827300000000    -0.528322   
H62      H      0.075066666667     0.259133333333     0.248050000000    -0.591018   
H62      H      0.075066666667     0.259133333333     0.748050000000    -0.591018   
H62      H      0.075066666667     0.592466666667     0.248050000000    -0.591018   
H62      H      0.075066666667     0.592466666667     0.748050000000    -0.591018   
H62      H      0.075066666667     0.925800000000     0.248050000000    -0.591018   
H62      H      0.075066666667     0.925800000000     0.748050000000    -0.591018   
H62      H      0.408400000000     0.259133333333     0.248050000000    -0.591018   
H62      H      0.408400000000     0.259133333333     0.748050000000    -0.591018   
H62      H      0.408400000000     0.592466666667     0.248050000000    -0.591018   
H62      H      0.408400000000     0.592466666667     0.748050000000    -0.591018   
H62      H      0.408400000000     0.925800000000     0.248050000000    -0.591018   
H62      H      0.408400000000     0.925800000000     0.748050000000    -0.591018   
H62      H      0.741733333333     0.259133333333     0.248050000000    -0.591018   
H62      H      0.741733333333     0.259133333333     0.748050000000    -0.591018   
H62      H      0.741733333333     0.592466666667     0.248050000000    -0.591018   
H62      H      0.741733333333     0.592466666667     0.748050000000    -0.591018   
H62      H      0.741733333333     0.925800000000     0.248050000000    -0.591018   
H62      H      0.741733333333     0.925800000000     0.748050000000    -0.591018   
H63      H      0.007600000000     0.259933333333     0.247400000000    -0.552836   
H63      H      0.007600000000     0.259933333333     0.747400000000    -0.552836   
H63      H      0.007600000000     0.593266666667     0.247400000000    -0.552836   
H63      H      0.007600000000     0.593266666667     0.747400000000    -0.552836   
H63      H      0.007600000000     0.926600000000     0.247400000000    -0.552836   
H63      H      0.007600000000     0.926600000000     0.747400000000    -0.552836   
H63      H      0.340933333333     0.259933333333     0.247400000000    -0.552836   
H63      H      0.340933333333     0.259933333333     0.747400000000    -0.552836   
H63      H      0.340933333333     0.593266666667     0.247400000000    -0.552836   
H63      H      0.340933333333     0.593266666667     0.747400000000    -0.552836   
H63      H      0.340933333333     0.926600000000     0.247400000000    -0.552836   
H63      H      0.340933333333     0.926600000000     0.747400000000    -0.552836   
H63      H      0.674266666667     0.259933333333     0.247400000000    -0.552836   
H63      H      0.674266666667     0.259933333333     0.747400000000    -0.552836   
H63      H      0.674266666667     0.593266666667     0.247400000000    -0.552836   
H63      H      0.674266666667     0.593266666667     0.747400000000    -0.552836   
H63      H      0.674266666667     0.926600000000     0.247400000000    -0.552836   
H63      H      0.674266666667     0.926600000000     0.747400000000    -0.552836   
H64      H      0.286033333333     0.190366666667     0.335300000000    -0.601171   
H64      H      0.286033333333     0.190366666667     0.835300000000    -0.601171   
H64      H      0.286033333333     0.523700000000     0.335300000000    -0.601171   
H64      H      0.286033333333     0.523700000000     0.835300000000    -0.601171   
H64      H      0.286033333333     0.857033333333     0.335300000000    -0.601171   
H64      H      0.286033333333     0.857033333333     0.835300000000    -0.601171   
H64      H      0.619366666667     0.190366666667     0.335300000000    -0.601171   
H64      H      0.619366666667     0.190366666667     0.835300000000    -0.601171   
H64      H      0.619366666667     0.523700000000     0.335300000000    -0.601171   
H64      H      0.619366666667     0.523700000000     0.835300000000    -0.601171   
H64      H      0.619366666667     0.857033333333     0.335300000000    -0.601171   
H64      H      0.619366666667     0.857033333333     0.835300000000    -0.601171   
H64      H      0.952700000000     0.190366666667     0.335300000000    -0.601171   
H64      H      0.952700000000     0.190366666667     0.835300000000    -0.601171   
H64      H      0.952700000000     0.523700000000     0.335300000000    -0.601171   
H64      H      0.952700000000     0.523700000000     0.835300000000    -0.601171   
H64      H      0.952700000000     0.857033333333     0.335300000000    -0.601171   
H64      H      0.952700000000     0.857033333333     0.835300000000    -0.601171   
N1       N      0.122900000000     0.115866666667     0.464415000000    -0.546122   
N1       N      0.122900000000     0.115866666667     0.964415000000    -0.546122   
N1       N      0.122900000000     0.449200000000     0.464415000000    -0.546122   
N1       N      0.122900000000     0.449200000000     0.964415000000    -0.546122   
N1       N      0.122900000000     0.782533333333     0.464415000000    -0.546122   
N1       N      0.122900000000     0.782533333333     0.964415000000    -0.546122   
N1       N      0.456233333333     0.115866666667     0.464415000000    -0.546122   
N1       N      0.456233333333     0.115866666667     0.964415000000    -0.546122   
N1       N      0.456233333333     0.449200000000     0.464415000000    -0.546122   
N1       N      0.456233333333     0.449200000000     0.964415000000    -0.546122   
N1       N      0.456233333333     0.782533333333     0.464415000000    -0.546122   
N1       N      0.456233333333     0.782533333333     0.964415000000    -0.546122   
N1       N      0.789566666667     0.115866666667     0.464415000000    -0.546122   
N1       N      0.789566666667     0.115866666667     0.964415000000    -0.546122   
N1       N      0.789566666667     0.449200000000     0.464415000000    -0.546122   
N1       N      0.789566666667     0.449200000000     0.964415000000    -0.546122   
N1       N      0.789566666667     0.782533333333     0.464415000000    -0.546122   
N1       N      0.789566666667     0.782533333333     0.964415000000    -0.546122   
N2       N      0.115866666667     0.122766666667     0.214450000000    -0.526824   
N2       N      0.115866666667     0.122766666667     0.714450000000    -0.526824   
N2       N      0.115866666667     0.456100000000     0.214450000000    -0.526824   
N2       N      0.115866666667     0.456100000000     0.714450000000    -0.526824   
N2       N      0.115866666667     0.789433333333     0.214450000000    -0.526824   
N2       N      0.115866666667     0.789433333333     0.714450000000    -0.526824   
N2       N      0.449200000000     0.122766666667     0.214450000000    -0.526824   
N2       N      0.449200000000     0.122766666667     0.714450000000    -0.526824   
N2       N      0.449200000000     0.456100000000     0.214450000000    -0.526824   
N2       N      0.449200000000     0.456100000000     0.714450000000    -0.526824   
N2       N      0.449200000000     0.789433333333     0.214450000000    -0.526824   
N2       N      0.449200000000     0.789433333333     0.714450000000    -0.526824   
N2       N      0.782533333333     0.122766666667     0.214450000000    -0.526824   
N2       N      0.782533333333     0.122766666667     0.714450000000    -0.526824   
N2       N      0.782533333333     0.456100000000     0.214450000000    -0.526824   
N2       N      0.782533333333     0.456100000000     0.714450000000    -0.526824   
N2       N      0.782533333333     0.789433333333     0.214450000000    -0.526824   
N2       N      0.782533333333     0.789433333333     0.714450000000    -0.526824   
N3       N      0.120233333333     0.240866666667     0.463970000000    -0.549496   
N3       N      0.120233333333     0.240866666667     0.963970000000    -0.549496   
N3       N      0.120233333333     0.574200000000     0.463970000000    -0.549496   
N3       N      0.120233333333     0.574200000000     0.963970000000    -0.549496   
N3       N      0.120233333333     0.907533333333     0.463970000000    -0.549496   
N3       N      0.120233333333     0.907533333333     0.963970000000    -0.549496   
N3       N      0.453566666667     0.240866666667     0.463970000000    -0.549496   
N3       N      0.453566666667     0.240866666667     0.963970000000    -0.549496   
N3       N      0.453566666667     0.574200000000     0.463970000000    -0.549496   
N3       N      0.453566666667     0.574200000000     0.963970000000    -0.549496   
N3       N      0.453566666667     0.907533333333     0.463970000000    -0.549496   
N3       N      0.453566666667     0.907533333333     0.963970000000    -0.549496   
N3       N      0.786900000000     0.240866666667     0.463970000000    -0.549496   
N3       N      0.786900000000     0.240866666667     0.963970000000    -0.549496   
N3       N      0.786900000000     0.574200000000     0.463970000000    -0.549496   
N3       N      0.786900000000     0.574200000000     0.963970000000    -0.549496   
N3       N      0.786900000000     0.907533333333     0.463970000000    -0.549496   
N3       N      0.786900000000     0.907533333333     0.963970000000    -0.549496   
N4       N      0.217466666667     0.210566666667     0.285550000000    -0.252881   
N4       N      0.217466666667     0.210566666667     0.785550000000    -0.252881   
N4       N      0.217466666667     0.543900000000     0.285550000000    -0.252881   
N4       N      0.217466666667     0.543900000000     0.785550000000    -0.252881   
N4       N      0.217466666667     0.877233333333     0.285550000000    -0.252881   
N4       N      0.217466666667     0.877233333333     0.785550000000    -0.252881   
N4       N      0.550800000000     0.210566666667     0.285550000000    -0.252881   
N4       N      0.550800000000     0.210566666667     0.785550000000    -0.252881   
N4       N      0.550800000000     0.543900000000     0.285550000000    -0.252881   
N4       N      0.550800000000     0.543900000000     0.785550000000    -0.252881   
N4       N      0.550800000000     0.877233333333     0.285550000000    -0.252881   
N4       N      0.550800000000     0.877233333333     0.785550000000    -0.252881   
N4       N      0.884133333333     0.210566666667     0.285550000000    -0.252881   
N4       N      0.884133333333     0.210566666667     0.785550000000    -0.252881   
N4       N      0.884133333333     0.543900000000     0.285550000000    -0.252881   
N4       N      0.884133333333     0.543900000000     0.785550000000    -0.252881   
N4       N      0.884133333333     0.877233333333     0.285550000000    -0.252881   
N4       N      0.884133333333     0.877233333333     0.785550000000    -0.252881   
N5       N      0.092433333333     0.213200000000     0.285955000000    -0.250403   
N5       N      0.092433333333     0.213200000000     0.785955000000    -0.250403   
N5       N      0.092433333333     0.546533333333     0.285955000000    -0.250403   
N5       N      0.092433333333     0.546533333333     0.785955000000    -0.250403   
N5       N      0.092433333333     0.879866666667     0.285955000000    -0.250403   
N5       N      0.092433333333     0.879866666667     0.785955000000    -0.250403   
N5       N      0.425766666667     0.213200000000     0.285955000000    -0.250403   
N5       N      0.425766666667     0.213200000000     0.785955000000    -0.250403   
N5       N      0.425766666667     0.546533333333     0.285955000000    -0.250403   
N5       N      0.425766666667     0.546533333333     0.785955000000    -0.250403   
N5       N      0.425766666667     0.879866666667     0.285955000000    -0.250403   
N5       N      0.425766666667     0.879866666667     0.785955000000    -0.250403   
N5       N      0.759100000000     0.213200000000     0.285955000000    -0.250403   
N5       N      0.759100000000     0.213200000000     0.785955000000    -0.250403   
N5       N      0.759100000000     0.546533333333     0.285955000000    -0.250403   
N5       N      0.759100000000     0.546533333333     0.785955000000    -0.250403   
N5       N      0.759100000000     0.879866666667     0.285955000000    -0.250403   
N5       N      0.759100000000     0.879866666667     0.785955000000    -0.250403   
N6       N      0.210433333333     0.217466666667     0.035585000000    -0.547464   
N6       N      0.210433333333     0.217466666667     0.535585000000    -0.547464   
N6       N      0.210433333333     0.550800000000     0.035585000000    -0.547464   
N6       N      0.210433333333     0.550800000000     0.535585000000    -0.547464   
N6       N      0.210433333333     0.884133333333     0.035585000000    -0.547464   
N6       N      0.210433333333     0.884133333333     0.535585000000    -0.547464   
N6       N      0.543766666667     0.217466666667     0.035585000000    -0.547464   
N6       N      0.543766666667     0.217466666667     0.535585000000    -0.547464   
N6       N      0.543766666667     0.550800000000     0.035585000000    -0.547464   
N6       N      0.543766666667     0.550800000000     0.535585000000    -0.547464   
N6       N      0.543766666667     0.884133333333     0.035585000000    -0.547464   
N6       N      0.543766666667     0.884133333333     0.535585000000    -0.547464   
N6       N      0.877100000000     0.217466666667     0.035585000000    -0.547464   
N6       N      0.877100000000     0.217466666667     0.535585000000    -0.547464   
N6       N      0.877100000000     0.550800000000     0.035585000000    -0.547464   
N6       N      0.877100000000     0.550800000000     0.535585000000    -0.547464   
N6       N      0.877100000000     0.884133333333     0.035585000000    -0.547464   
N6       N      0.877100000000     0.884133333333     0.535585000000    -0.547464   
N7       N      0.213100000000     0.092466666667     0.036030000000    -0.528291   
N7       N      0.213100000000     0.092466666667     0.536030000000    -0.528291   
N7       N      0.213100000000     0.425800000000     0.036030000000    -0.528291   
N7       N      0.213100000000     0.425800000000     0.536030000000    -0.528291   
N7       N      0.213100000000     0.759133333333     0.036030000000    -0.528291   
N7       N      0.213100000000     0.759133333333     0.536030000000    -0.528291   
N7       N      0.546433333333     0.092466666667     0.036030000000    -0.528291   
N7       N      0.546433333333     0.092466666667     0.536030000000    -0.528291   
N7       N      0.546433333333     0.425800000000     0.036030000000    -0.528291   
N7       N      0.546433333333     0.425800000000     0.536030000000    -0.528291   
N7       N      0.546433333333     0.759133333333     0.036030000000    -0.528291   
N7       N      0.546433333333     0.759133333333     0.536030000000    -0.528291   
N7       N      0.879766666667     0.092466666667     0.036030000000    -0.528291   
N7       N      0.879766666667     0.092466666667     0.536030000000    -0.528291   
N7       N      0.879766666667     0.425800000000     0.036030000000    -0.528291   
N7       N      0.879766666667     0.425800000000     0.536030000000    -0.528291   
N7       N      0.879766666667     0.759133333333     0.036030000000    -0.528291   
N7       N      0.879766666667     0.759133333333     0.536030000000    -0.528291   
N8       N      0.240900000000     0.120133333333     0.214045000000    -0.591008   
N8       N      0.240900000000     0.120133333333     0.714045000000    -0.591008   
N8       N      0.240900000000     0.453466666667     0.214045000000    -0.591008   
N8       N      0.240900000000     0.453466666667     0.714045000000    -0.591008   
N8       N      0.240900000000     0.786800000000     0.214045000000    -0.591008   
N8       N      0.240900000000     0.786800000000     0.714045000000    -0.591008   
N8       N      0.574233333333     0.120133333333     0.214045000000    -0.591008   
N8       N      0.574233333333     0.120133333333     0.714045000000    -0.591008   
N8       N      0.574233333333     0.453466666667     0.214045000000    -0.591008   
N8       N      0.574233333333     0.453466666667     0.714045000000    -0.591008   
N8       N      0.574233333333     0.786800000000     0.214045000000    -0.591008   
N8       N      0.574233333333     0.786800000000     0.714045000000    -0.591008   
N8       N      0.907566666667     0.120133333333     0.214045000000    -0.591008   
N8       N      0.907566666667     0.120133333333     0.714045000000    -0.591008   
N8       N      0.907566666667     0.453466666667     0.214045000000    -0.591008   
N8       N      0.907566666667     0.453466666667     0.714045000000    -0.591008   
N8       N      0.907566666667     0.786800000000     0.214045000000    -0.591008   
N8       N      0.907566666667     0.786800000000     0.714045000000    -0.591008   
Ni1      Ni     0.211793333333     0.155103333333     0.034630000000    -0.552832   
Ni1      Ni     0.211793333333     0.155103333333     0.534630000000    -0.552832   
Ni1      Ni     0.211793333333     0.488436666667     0.034630000000    -0.552832   
Ni1      Ni     0.211793333333     0.488436666667     0.534630000000    -0.552832   
Ni1      Ni     0.211793333333     0.821770000000     0.034630000000    -0.552832   
Ni1      Ni     0.211793333333     0.821770000000     0.534630000000    -0.552832   
Ni1      Ni     0.545126666667     0.155103333333     0.034630000000    -0.552832   
Ni1      Ni     0.545126666667     0.155103333333     0.534630000000    -0.552832   
Ni1      Ni     0.545126666667     0.488436666667     0.034630000000    -0.552832   
Ni1      Ni     0.545126666667     0.488436666667     0.534630000000    -0.552832   
Ni1      Ni     0.545126666667     0.821770000000     0.034630000000    -0.552832   
Ni1      Ni     0.545126666667     0.821770000000     0.534630000000    -0.552832   
Ni1      Ni     0.878460000000     0.155103333333     0.034630000000    -0.552832   
Ni1      Ni     0.878460000000     0.155103333333     0.534630000000    -0.552832   
Ni1      Ni     0.878460000000     0.488436666667     0.034630000000    -0.552832   
Ni1      Ni     0.878460000000     0.488436666667     0.534630000000    -0.552832   
Ni1      Ni     0.878460000000     0.821770000000     0.034630000000    -0.552832   
Ni1      Ni     0.878460000000     0.821770000000     0.534630000000    -0.552832   
Ni2      Ni     0.155100000000     0.211823333333     0.284595000000    -0.601191   
Ni2      Ni     0.155100000000     0.211823333333     0.784595000000    -0.601191   
Ni2      Ni     0.155100000000     0.545156666667     0.284595000000    -0.601191   
Ni2      Ni     0.155100000000     0.545156666667     0.784595000000    -0.601191   
Ni2      Ni     0.155100000000     0.878490000000     0.284595000000    -0.601191   
Ni2      Ni     0.155100000000     0.878490000000     0.784595000000    -0.601191   
Ni2      Ni     0.488433333333     0.211823333333     0.284595000000    -0.601191   
Ni2      Ni     0.488433333333     0.211823333333     0.784595000000    -0.601191   
Ni2      Ni     0.488433333333     0.545156666667     0.284595000000    -0.601191   
Ni2      Ni     0.488433333333     0.545156666667     0.784595000000    -0.601191   
Ni2      Ni     0.488433333333     0.878490000000     0.284595000000    -0.601191   
Ni2      Ni     0.488433333333     0.878490000000     0.784595000000    -0.601191   
Ni2      Ni     0.821766666667     0.211823333333     0.284595000000    -0.601191   
Ni2      Ni     0.821766666667     0.211823333333     0.784595000000    -0.601191   
Ni2      Ni     0.821766666667     0.545156666667     0.284595000000    -0.601191   
Ni2      Ni     0.821766666667     0.545156666667     0.784595000000    -0.601191   
Ni2      Ni     0.821766666667     0.878490000000     0.284595000000    -0.601191   
Ni2      Ni     0.821766666667     0.878490000000     0.784595000000    -0.601191   
Ni3      Ni     0.121540000000     0.178230000000     0.465370000000    -0.54611    
Ni3      Ni     0.121540000000     0.178230000000     0.965370000000    -0.54611    
Ni3      Ni     0.121540000000     0.511563333333     0.465370000000    -0.54611    
Ni3      Ni     0.121540000000     0.511563333333     0.965370000000    -0.54611    
Ni3      Ni     0.121540000000     0.844896666667     0.465370000000    -0.54611    
Ni3      Ni     0.121540000000     0.844896666667     0.965370000000    -0.54611    
Ni3      Ni     0.454873333333     0.178230000000     0.465370000000    -0.54611    
Ni3      Ni     0.454873333333     0.178230000000     0.965370000000    -0.54611    
Ni3      Ni     0.454873333333     0.511563333333     0.465370000000    -0.54611    
Ni3      Ni     0.454873333333     0.511563333333     0.965370000000    -0.54611    
Ni3      Ni     0.454873333333     0.844896666667     0.465370000000    -0.54611    
Ni3      Ni     0.454873333333     0.844896666667     0.965370000000    -0.54611    
Ni3      Ni     0.788206666667     0.178230000000     0.465370000000    -0.54611    
Ni3      Ni     0.788206666667     0.178230000000     0.965370000000    -0.54611    
Ni3      Ni     0.788206666667     0.511563333333     0.465370000000    -0.54611    
Ni3      Ni     0.788206666667     0.511563333333     0.965370000000    -0.54611    
Ni3      Ni     0.788206666667     0.844896666667     0.465370000000    -0.54611    
Ni3      Ni     0.788206666667     0.844896666667     0.965370000000    -0.54611    
Ni4      Ni     0.178233333333     0.121510000000     0.215405000000    -0.526905   
Ni4      Ni     0.178233333333     0.121510000000     0.715405000000    -0.526905   
Ni4      Ni     0.178233333333     0.454843333333     0.215405000000    -0.526905   
Ni4      Ni     0.178233333333     0.454843333333     0.715405000000    -0.526905   
Ni4      Ni     0.178233333333     0.788176666667     0.215405000000    -0.526905   
Ni4      Ni     0.178233333333     0.788176666667     0.715405000000    -0.526905   
Ni4      Ni     0.511566666667     0.121510000000     0.215405000000    -0.526905   
Ni4      Ni     0.511566666667     0.121510000000     0.715405000000    -0.526905   
Ni4      Ni     0.511566666667     0.454843333333     0.215405000000    -0.526905   
Ni4      Ni     0.511566666667     0.454843333333     0.715405000000    -0.526905   
Ni4      Ni     0.511566666667     0.788176666667     0.215405000000    -0.526905   
Ni4      Ni     0.511566666667     0.788176666667     0.715405000000    -0.526905   
Ni4      Ni     0.844900000000     0.121510000000     0.215405000000    -0.526905   
Ni4      Ni     0.844900000000     0.121510000000     0.715405000000    -0.526905   
Ni4      Ni     0.844900000000     0.454843333333     0.215405000000    -0.526905   
Ni4      Ni     0.844900000000     0.454843333333     0.715405000000    -0.526905   
Ni4      Ni     0.844900000000     0.788176666667     0.215405000000    -0.526905   
Ni4      Ni     0.844900000000     0.788176666667     0.715405000000    -0.526905   
O1       O      0.127566666667     0.281166666667     0.283510000000    -0.549583   
O1       O      0.127566666667     0.281166666667     0.783510000000    -0.549583   
O1       O      0.127566666667     0.614500000000     0.283510000000    -0.549583   
O1       O      0.127566666667     0.614500000000     0.783510000000    -0.549583   
O1       O      0.127566666667     0.947833333333     0.283510000000    -0.549583   
O1       O      0.127566666667     0.947833333333     0.783510000000    -0.549583   
O1       O      0.460900000000     0.281166666667     0.283510000000    -0.549583   
O1       O      0.460900000000     0.281166666667     0.783510000000    -0.549583   
O1       O      0.460900000000     0.614500000000     0.283510000000    -0.549583   
O1       O      0.460900000000     0.614500000000     0.783510000000    -0.549583   
O1       O      0.460900000000     0.947833333333     0.283510000000    -0.549583   
O1       O      0.460900000000     0.947833333333     0.783510000000    -0.549583   
O1       O      0.794233333333     0.281166666667     0.283510000000    -0.549583   
O1       O      0.794233333333     0.281166666667     0.783510000000    -0.549583   
O1       O      0.794233333333     0.614500000000     0.283510000000    -0.549583   
O1       O      0.794233333333     0.614500000000     0.783510000000    -0.549583   
O1       O      0.794233333333     0.947833333333     0.283510000000    -0.549583   
O1       O      0.794233333333     0.947833333333     0.783510000000    -0.549583   
O2       O      0.130966666667     0.237366666667     0.330935000000    -0.2504     
O2       O      0.130966666667     0.237366666667     0.830935000000    -0.2504     
O2       O      0.130966666667     0.570700000000     0.330935000000    -0.2504     
O2       O      0.130966666667     0.570700000000     0.830935000000    -0.2504     
O2       O      0.130966666667     0.904033333333     0.330935000000    -0.2504     
O2       O      0.130966666667     0.904033333333     0.830935000000    -0.2504     
O2       O      0.464300000000     0.237366666667     0.330935000000    -0.2504     
O2       O      0.464300000000     0.237366666667     0.830935000000    -0.2504     
O2       O      0.464300000000     0.570700000000     0.330935000000    -0.2504     
O2       O      0.464300000000     0.570700000000     0.830935000000    -0.2504     
O2       O      0.464300000000     0.904033333333     0.330935000000    -0.2504     
O2       O      0.464300000000     0.904033333333     0.830935000000    -0.2504     
O2       O      0.797633333333     0.237366666667     0.330935000000    -0.2504     
O2       O      0.797633333333     0.237366666667     0.830935000000    -0.2504     
O2       O      0.797633333333     0.570700000000     0.330935000000    -0.2504     
O2       O      0.797633333333     0.570700000000     0.830935000000    -0.2504     
O2       O      0.797633333333     0.904033333333     0.330935000000    -0.2504     
O2       O      0.797633333333     0.904033333333     0.830935000000    -0.2504     
O3       O      0.163966666667     0.119000000000     0.265920000000    -0.252889   
O3       O      0.163966666667     0.119000000000     0.765920000000    -0.252889   
O3       O      0.163966666667     0.452333333333     0.265920000000    -0.252889   
O3       O      0.163966666667     0.452333333333     0.765920000000    -0.252889   
O3       O      0.163966666667     0.785666666667     0.265920000000    -0.252889   
O3       O      0.163966666667     0.785666666667     0.765920000000    -0.252889   
O3       O      0.497300000000     0.119000000000     0.265920000000    -0.252889   
O3       O      0.497300000000     0.119000000000     0.765920000000    -0.252889   
O3       O      0.497300000000     0.452333333333     0.265920000000    -0.252889   
O3       O      0.497300000000     0.452333333333     0.765920000000    -0.252889   
O3       O      0.497300000000     0.785666666667     0.265920000000    -0.252889   
O3       O      0.497300000000     0.785666666667     0.765920000000    -0.252889   
O3       O      0.830633333333     0.119000000000     0.265920000000    -0.252889   
O3       O      0.830633333333     0.119000000000     0.765920000000    -0.252889   
O3       O      0.830633333333     0.452333333333     0.265920000000    -0.252889   
O3       O      0.830633333333     0.452333333333     0.765920000000    -0.252889   
O3       O      0.830633333333     0.785666666667     0.265920000000    -0.252889   
O3       O      0.830633333333     0.785666666667     0.765920000000    -0.252889   
O4       O      0.180033333333     0.147233333333     0.302645000000     0.275983   
O4       O      0.180033333333     0.147233333333     0.802645000000     0.275983   
O4       O      0.180033333333     0.480566666667     0.302645000000     0.275983   
O4       O      0.180033333333     0.480566666667     0.802645000000     0.275983   
O4       O      0.180033333333     0.813900000000     0.302645000000     0.275983   
O4       O      0.180033333333     0.813900000000     0.802645000000     0.275983   
O4       O      0.513366666667     0.147233333333     0.302645000000     0.275983   
O4       O      0.513366666667     0.147233333333     0.802645000000     0.275983   
O4       O      0.513366666667     0.480566666667     0.302645000000     0.275983   
O4       O      0.513366666667     0.480566666667     0.802645000000     0.275983   
O4       O      0.513366666667     0.813900000000     0.302645000000     0.275983   
O4       O      0.513366666667     0.813900000000     0.802645000000     0.275983   
O4       O      0.846700000000     0.147233333333     0.302645000000     0.275983   
O4       O      0.846700000000     0.147233333333     0.802645000000     0.275983   
O4       O      0.846700000000     0.480566666667     0.302645000000     0.275983   
O4       O      0.846700000000     0.480566666667     0.802645000000     0.275983   
O4       O      0.846700000000     0.813900000000     0.302645000000     0.275983   
O4       O      0.846700000000     0.813900000000     0.802645000000     0.275983   
O5       O      0.214333333333     0.169566666667     0.484100000000    -0.238905   
O5       O      0.214333333333     0.169566666667     0.984100000000    -0.238905   
O5       O      0.214333333333     0.502900000000     0.484100000000    -0.238905   
O5       O      0.214333333333     0.502900000000     0.984100000000    -0.238905   
O5       O      0.214333333333     0.836233333333     0.484100000000    -0.238905   
O5       O      0.214333333333     0.836233333333     0.984100000000    -0.238905   
O5       O      0.547666666667     0.169566666667     0.484100000000    -0.238905   
O5       O      0.547666666667     0.169566666667     0.984100000000    -0.238905   
O5       O      0.547666666667     0.502900000000     0.484100000000    -0.238905   
O5       O      0.547666666667     0.502900000000     0.984100000000    -0.238905   
O5       O      0.547666666667     0.836233333333     0.484100000000    -0.238905   
O5       O      0.547666666667     0.836233333333     0.984100000000    -0.238905   
O5       O      0.881000000000     0.169566666667     0.484100000000    -0.238905   
O5       O      0.881000000000     0.169566666667     0.984100000000    -0.238905   
O5       O      0.881000000000     0.502900000000     0.484100000000    -0.238905   
O5       O      0.881000000000     0.502900000000     0.984100000000    -0.238905   
O5       O      0.881000000000     0.836233333333     0.484100000000    -0.238905   
O5       O      0.881000000000     0.836233333333     0.984100000000    -0.238905   
O6       O      0.186133333333     0.153300000000     0.447420000000    -0.08435    
O6       O      0.186133333333     0.153300000000     0.947420000000    -0.08435    
O6       O      0.186133333333     0.486633333333     0.447420000000    -0.08435    
O6       O      0.186133333333     0.486633333333     0.947420000000    -0.08435    
O6       O      0.186133333333     0.819966666667     0.447420000000    -0.08435    
O6       O      0.186133333333     0.819966666667     0.947420000000    -0.08435    
O6       O      0.519466666667     0.153300000000     0.447420000000    -0.08435    
O6       O      0.519466666667     0.153300000000     0.947420000000    -0.08435    
O6       O      0.519466666667     0.486633333333     0.447420000000    -0.08435    
O6       O      0.519466666667     0.486633333333     0.947420000000    -0.08435    
O6       O      0.519466666667     0.819966666667     0.447420000000    -0.08435    
O6       O      0.519466666667     0.819966666667     0.947420000000    -0.08435    
O6       O      0.852800000000     0.153300000000     0.447420000000    -0.08435    
O6       O      0.852800000000     0.153300000000     0.947420000000    -0.08435    
O6       O      0.852800000000     0.486633333333     0.447420000000    -0.08435    
O6       O      0.852800000000     0.486633333333     0.947420000000    -0.08435    
O6       O      0.852800000000     0.819966666667     0.447420000000    -0.08435    
O6       O      0.852800000000     0.819966666667     0.947420000000    -0.08435    
O7       O      0.096133333333     0.202333333333     0.419040000000     0.276852   
O7       O      0.096133333333     0.202333333333     0.919040000000     0.276852   
O7       O      0.096133333333     0.535666666667     0.419040000000     0.276852   
O7       O      0.096133333333     0.535666666667     0.919040000000     0.276852   
O7       O      0.096133333333     0.869000000000     0.419040000000     0.276852   
O7       O      0.096133333333     0.869000000000     0.919040000000     0.276852   
O7       O      0.429466666667     0.202333333333     0.419040000000     0.276852   
O7       O      0.429466666667     0.202333333333     0.919040000000     0.276852   
O7       O      0.429466666667     0.535666666667     0.419040000000     0.276852   
O7       O      0.429466666667     0.535666666667     0.919040000000     0.276852   
O7       O      0.429466666667     0.869000000000     0.419040000000     0.276852   
O7       O      0.429466666667     0.869000000000     0.919040000000     0.276852   
O7       O      0.762800000000     0.202333333333     0.419040000000     0.276852   
O7       O      0.762800000000     0.202333333333     0.919040000000     0.276852   
O7       O      0.762800000000     0.535666666667     0.419040000000     0.276852   
O7       O      0.762800000000     0.535666666667     0.919040000000     0.276852   
O7       O      0.762800000000     0.869000000000     0.419040000000     0.276852   
O7       O      0.762800000000     0.869000000000     0.919040000000     0.276852   
O8       O      0.052233333333     0.205800000000     0.466390000000    -0.225194   
O8       O      0.052233333333     0.205800000000     0.966390000000    -0.225194   
O8       O      0.052233333333     0.539133333333     0.466390000000    -0.225194   
O8       O      0.052233333333     0.539133333333     0.966390000000    -0.225194   
O8       O      0.052233333333     0.872466666667     0.466390000000    -0.225194   
O8       O      0.052233333333     0.872466666667     0.966390000000    -0.225194   
O8       O      0.385566666667     0.205800000000     0.466390000000    -0.225194   
O8       O      0.385566666667     0.205800000000     0.966390000000    -0.225194   
O8       O      0.385566666667     0.539133333333     0.466390000000    -0.225194   
O8       O      0.385566666667     0.539133333333     0.966390000000    -0.225194   
O8       O      0.385566666667     0.872466666667     0.466390000000    -0.225194   
O8       O      0.385566666667     0.872466666667     0.966390000000    -0.225194   
O8       O      0.718900000000     0.205800000000     0.466390000000    -0.225194   
O8       O      0.718900000000     0.205800000000     0.966390000000    -0.225194   
O8       O      0.718900000000     0.539133333333     0.466390000000    -0.225194   
O8       O      0.718900000000     0.539133333333     0.966390000000    -0.225194   
O8       O      0.718900000000     0.872466666667     0.466390000000    -0.225194   
O8       O      0.718900000000     0.872466666667     0.966390000000    -0.225194   
O9       O      0.280400000000     0.241400000000     0.118950000000    -0.080072   
O9       O      0.280400000000     0.241400000000     0.618950000000    -0.080072   
O9       O      0.280400000000     0.574733333333     0.118950000000    -0.080072   
O9       O      0.280400000000     0.574733333333     0.618950000000    -0.080072   
O9       O      0.280400000000     0.908066666667     0.118950000000    -0.080072   
O9       O      0.280400000000     0.908066666667     0.618950000000    -0.080072   
O9       O      0.613733333333     0.241400000000     0.118950000000    -0.080072   
O9       O      0.613733333333     0.241400000000     0.618950000000    -0.080072   
O9       O      0.613733333333     0.574733333333     0.118950000000    -0.080072   
O9       O      0.613733333333     0.574733333333     0.618950000000    -0.080072   
O9       O      0.613733333333     0.908066666667     0.118950000000    -0.080072   
O9       O      0.613733333333     0.908066666667     0.618950000000    -0.080072   
O9       O      0.947066666667     0.241400000000     0.118950000000    -0.080072   
O9       O      0.947066666667     0.241400000000     0.618950000000    -0.080072   
O9       O      0.947066666667     0.574733333333     0.118950000000    -0.080072   
O9       O      0.947066666667     0.574733333333     0.618950000000    -0.080072   
O9       O      0.947066666667     0.908066666667     0.118950000000    -0.080072   
O9       O      0.947066666667     0.908066666667     0.618950000000    -0.080072   
O10      O      0.091833333333     0.052800000000     0.131200000000    -0.034857   
O10      O      0.091833333333     0.052800000000     0.631200000000    -0.034857   
O10      O      0.091833333333     0.386133333333     0.131200000000    -0.034857   
O10      O      0.091833333333     0.386133333333     0.631200000000    -0.034857   
O10      O      0.091833333333     0.719466666667     0.131200000000    -0.034857   
O10      O      0.091833333333     0.719466666667     0.631200000000    -0.034857   
O10      O      0.425166666667     0.052800000000     0.131200000000    -0.034857   
O10      O      0.425166666667     0.052800000000     0.631200000000    -0.034857   
O10      O      0.425166666667     0.386133333333     0.131200000000    -0.034857   
O10      O      0.425166666667     0.386133333333     0.631200000000    -0.034857   
O10      O      0.425166666667     0.719466666667     0.131200000000    -0.034857   
O10      O      0.425166666667     0.719466666667     0.631200000000    -0.034857   
O10      O      0.758500000000     0.052800000000     0.131200000000    -0.034857   
O10      O      0.758500000000     0.052800000000     0.631200000000    -0.034857   
O10      O      0.758500000000     0.386133333333     0.131200000000    -0.034857   
O10      O      0.758500000000     0.386133333333     0.631200000000    -0.034857   
O10      O      0.758500000000     0.719466666667     0.131200000000    -0.034857   
O10      O      0.758500000000     0.719466666667     0.631200000000    -0.034857   
O11      O      0.205766666667     0.052166666667     0.216490000000    -0.090486   
O11      O      0.205766666667     0.052166666667     0.716490000000    -0.090486   
O11      O      0.205766666667     0.385500000000     0.216490000000    -0.090486   
O11      O      0.205766666667     0.385500000000     0.716490000000    -0.090486   
O11      O      0.205766666667     0.718833333333     0.216490000000    -0.090486   
O11      O      0.205766666667     0.718833333333     0.716490000000    -0.090486   
O11      O      0.539100000000     0.052166666667     0.216490000000    -0.090486   
O11      O      0.539100000000     0.052166666667     0.716490000000    -0.090486   
O11      O      0.539100000000     0.385500000000     0.216490000000    -0.090486   
O11      O      0.539100000000     0.385500000000     0.716490000000    -0.090486   
O11      O      0.539100000000     0.718833333333     0.216490000000    -0.090486   
O11      O      0.539100000000     0.718833333333     0.716490000000    -0.090486   
O11      O      0.872433333333     0.052166666667     0.216490000000    -0.090486   
O11      O      0.872433333333     0.052166666667     0.716490000000    -0.090486   
O11      O      0.872433333333     0.385500000000     0.216490000000    -0.090486   
O11      O      0.872433333333     0.385500000000     0.716490000000    -0.090486   
O11      O      0.872433333333     0.718833333333     0.216490000000    -0.090486   
O11      O      0.872433333333     0.718833333333     0.716490000000    -0.090486   
O12      O      0.202366666667     0.095966666667     0.169065000000     0.277363   
O12      O      0.202366666667     0.095966666667     0.669065000000     0.277363   
O12      O      0.202366666667     0.429300000000     0.169065000000     0.277363   
O12      O      0.202366666667     0.429300000000     0.669065000000     0.277363   
O12      O      0.202366666667     0.762633333333     0.169065000000     0.277363   
O12      O      0.202366666667     0.762633333333     0.669065000000     0.277363   
O12      O      0.535700000000     0.095966666667     0.169065000000     0.277363   
O12      O      0.535700000000     0.095966666667     0.669065000000     0.277363   
O12      O      0.535700000000     0.429300000000     0.169065000000     0.277363   
O12      O      0.535700000000     0.429300000000     0.669065000000     0.277363   
O12      O      0.535700000000     0.762633333333     0.169065000000     0.277363   
O12      O      0.535700000000     0.762633333333     0.669065000000     0.277363   
O12      O      0.869033333333     0.095966666667     0.169065000000     0.277363   
O12      O      0.869033333333     0.095966666667     0.669065000000     0.277363   
O12      O      0.869033333333     0.429300000000     0.169065000000     0.277363   
O12      O      0.869033333333     0.429300000000     0.669065000000     0.277363   
O12      O      0.869033333333     0.762633333333     0.169065000000     0.277363   
O12      O      0.869033333333     0.762633333333     0.669065000000     0.277363   
O13      O      0.169366666667     0.214333333333     0.234080000000    -0.22856    
O13      O      0.169366666667     0.214333333333     0.734080000000    -0.22856    
O13      O      0.169366666667     0.547666666667     0.234080000000    -0.22856    
O13      O      0.169366666667     0.547666666667     0.734080000000    -0.22856    
O13      O      0.169366666667     0.881000000000     0.234080000000    -0.22856    
O13      O      0.169366666667     0.881000000000     0.734080000000    -0.22856    
O13      O      0.502700000000     0.214333333333     0.234080000000    -0.22856    
O13      O      0.502700000000     0.214333333333     0.734080000000    -0.22856    
O13      O      0.502700000000     0.547666666667     0.234080000000    -0.22856    
O13      O      0.502700000000     0.547666666667     0.734080000000    -0.22856    
O13      O      0.502700000000     0.881000000000     0.234080000000    -0.22856    
O13      O      0.502700000000     0.881000000000     0.734080000000    -0.22856    
O13      O      0.836033333333     0.214333333333     0.234080000000    -0.22856    
O13      O      0.836033333333     0.214333333333     0.734080000000    -0.22856    
O13      O      0.836033333333     0.547666666667     0.234080000000    -0.22856    
O13      O      0.836033333333     0.547666666667     0.734080000000    -0.22856    
O13      O      0.836033333333     0.881000000000     0.234080000000    -0.22856    
O13      O      0.836033333333     0.881000000000     0.734080000000    -0.22856    
O14      O      0.153300000000     0.186100000000     0.197355000000     0.097207   
O14      O      0.153300000000     0.186100000000     0.697355000000     0.097207   
O14      O      0.153300000000     0.519433333333     0.197355000000     0.097207   
O14      O      0.153300000000     0.519433333333     0.697355000000     0.097207   
O14      O      0.153300000000     0.852766666667     0.197355000000     0.097207   
O14      O      0.153300000000     0.852766666667     0.697355000000     0.097207   
O14      O      0.486633333333     0.186100000000     0.197355000000     0.097207   
O14      O      0.486633333333     0.186100000000     0.697355000000     0.097207   
O14      O      0.486633333333     0.519433333333     0.197355000000     0.097207   
O14      O      0.486633333333     0.519433333333     0.697355000000     0.097207   
O14      O      0.486633333333     0.852766666667     0.197355000000     0.097207   
O14      O      0.486633333333     0.852766666667     0.697355000000     0.097207   
O14      O      0.819966666667     0.186100000000     0.197355000000     0.097207   
O14      O      0.819966666667     0.186100000000     0.697355000000     0.097207   
O14      O      0.819966666667     0.519433333333     0.197355000000     0.097207   
O14      O      0.819966666667     0.519433333333     0.697355000000     0.097207   
O14      O      0.819966666667     0.852766666667     0.197355000000     0.097207   
O14      O      0.819966666667     0.852766666667     0.697355000000     0.097207   
O15      O      0.119000000000     0.163766666667     0.015900000000    -0.200252   
O15      O      0.119000000000     0.163766666667     0.515900000000    -0.200252   
O15      O      0.119000000000     0.497100000000     0.015900000000    -0.200252   
O15      O      0.119000000000     0.497100000000     0.515900000000    -0.200252   
O15      O      0.119000000000     0.830433333333     0.015900000000    -0.200252   
O15      O      0.119000000000     0.830433333333     0.515900000000    -0.200252   
O15      O      0.452333333333     0.163766666667     0.015900000000    -0.200252   
O15      O      0.452333333333     0.163766666667     0.515900000000    -0.200252   
O15      O      0.452333333333     0.497100000000     0.015900000000    -0.200252   
O15      O      0.452333333333     0.497100000000     0.515900000000    -0.200252   
O15      O      0.452333333333     0.830433333333     0.015900000000    -0.200252   
O15      O      0.452333333333     0.830433333333     0.515900000000    -0.200252   
O15      O      0.785666666667     0.163766666667     0.015900000000    -0.200252   
O15      O      0.785666666667     0.163766666667     0.515900000000    -0.200252   
O15      O      0.785666666667     0.497100000000     0.015900000000    -0.200252   
O15      O      0.785666666667     0.497100000000     0.515900000000    -0.200252   
O15      O      0.785666666667     0.830433333333     0.015900000000    -0.200252   
O15      O      0.785666666667     0.830433333333     0.515900000000    -0.200252   
O16      O      0.147200000000     0.180033333333     0.052580000000     0.107558   
O16      O      0.147200000000     0.180033333333     0.552580000000     0.107558   
O16      O      0.147200000000     0.513366666667     0.052580000000     0.107558   
O16      O      0.147200000000     0.513366666667     0.552580000000     0.107558   
O16      O      0.147200000000     0.846700000000     0.052580000000     0.107558   
O16      O      0.147200000000     0.846700000000     0.552580000000     0.107558   
O16      O      0.480533333333     0.180033333333     0.052580000000     0.107558   
O16      O      0.480533333333     0.180033333333     0.552580000000     0.107558   
O16      O      0.480533333333     0.513366666667     0.052580000000     0.107558   
O16      O      0.480533333333     0.513366666667     0.552580000000     0.107558   
O16      O      0.480533333333     0.846700000000     0.052580000000     0.107558   
O16      O      0.480533333333     0.846700000000     0.552580000000     0.107558   
O16      O      0.813866666667     0.180033333333     0.052580000000     0.107558   
O16      O      0.813866666667     0.180033333333     0.552580000000     0.107558   
O16      O      0.813866666667     0.513366666667     0.052580000000     0.107558   
O16      O      0.813866666667     0.513366666667     0.552580000000     0.107558   
O16      O      0.813866666667     0.846700000000     0.052580000000     0.107558   
O16      O      0.813866666667     0.846700000000     0.552580000000     0.107558   
O17      O      0.237200000000     0.131000000000     0.080960000000    -0.191936   
O17      O      0.237200000000     0.131000000000     0.580960000000    -0.191936   
O17      O      0.237200000000     0.464333333333     0.080960000000    -0.191936   
O17      O      0.237200000000     0.464333333333     0.580960000000    -0.191936   
O17      O      0.237200000000     0.797666666667     0.080960000000    -0.191936   
O17      O      0.237200000000     0.797666666667     0.580960000000    -0.191936   
O17      O      0.570533333333     0.131000000000     0.080960000000    -0.191936   
O17      O      0.570533333333     0.131000000000     0.580960000000    -0.191936   
O17      O      0.570533333333     0.464333333333     0.080960000000    -0.191936   
O17      O      0.570533333333     0.464333333333     0.580960000000    -0.191936   
O17      O      0.570533333333     0.797666666667     0.080960000000    -0.191936   
O17      O      0.570533333333     0.797666666667     0.580960000000    -0.191936   
O17      O      0.903866666667     0.131000000000     0.080960000000    -0.191936   
O17      O      0.903866666667     0.131000000000     0.580960000000    -0.191936   
O17      O      0.903866666667     0.464333333333     0.080960000000    -0.191936   
O17      O      0.903866666667     0.464333333333     0.580960000000    -0.191936   
O17      O      0.903866666667     0.797666666667     0.080960000000    -0.191936   
O17      O      0.903866666667     0.797666666667     0.580960000000    -0.191936   
O18      O      0.281100000000     0.127533333333     0.033610000000     0.103265   
O18      O      0.281100000000     0.127533333333     0.533610000000     0.103265   
O18      O      0.281100000000     0.460866666667     0.033610000000     0.103265   
O18      O      0.281100000000     0.460866666667     0.533610000000     0.103265   
O18      O      0.281100000000     0.794200000000     0.033610000000     0.103265   
O18      O      0.281100000000     0.794200000000     0.533610000000     0.103265   
O18      O      0.614433333333     0.127533333333     0.033610000000     0.103265   
O18      O      0.614433333333     0.127533333333     0.533610000000     0.103265   
O18      O      0.614433333333     0.460866666667     0.033610000000     0.103265   
O18      O      0.614433333333     0.460866666667     0.533610000000     0.103265   
O18      O      0.614433333333     0.794200000000     0.033610000000     0.103265   
O18      O      0.614433333333     0.794200000000     0.533610000000     0.103265   
O18      O      0.947766666667     0.127533333333     0.033610000000     0.103265   
O18      O      0.947766666667     0.127533333333     0.533610000000     0.103265   
O18      O      0.947766666667     0.460866666667     0.033610000000     0.103265   
O18      O      0.947766666667     0.460866666667     0.533610000000     0.103265   
O18      O      0.947766666667     0.794200000000     0.033610000000     0.103265   
O18      O      0.947766666667     0.794200000000     0.533610000000     0.103265   
O19      O      0.241500000000     0.280533333333     0.368800000000     0.102758   
O19      O      0.241500000000     0.280533333333     0.868800000000     0.102758   
O19      O      0.241500000000     0.613866666667     0.368800000000     0.102758   
O19      O      0.241500000000     0.613866666667     0.868800000000     0.102758   
O19      O      0.241500000000     0.947200000000     0.368800000000     0.102758   
O19      O      0.241500000000     0.947200000000     0.868800000000     0.102758   
O19      O      0.574833333333     0.280533333333     0.368800000000     0.102758   
O19      O      0.574833333333     0.280533333333     0.868800000000     0.102758   
O19      O      0.574833333333     0.613866666667     0.368800000000     0.102758   
O19      O      0.574833333333     0.613866666667     0.868800000000     0.102758   
O19      O      0.574833333333     0.947200000000     0.368800000000     0.102758   
O19      O      0.574833333333     0.947200000000     0.868800000000     0.102758   
O19      O      0.908166666667     0.280533333333     0.368800000000     0.102758   
O19      O      0.908166666667     0.280533333333     0.868800000000     0.102758   
O19      O      0.908166666667     0.613866666667     0.368800000000     0.102758   
O19      O      0.908166666667     0.613866666667     0.868800000000     0.102758   
O19      O      0.908166666667     0.947200000000     0.368800000000     0.102758   
O19      O      0.908166666667     0.947200000000     0.868800000000     0.102758   
O20      O      0.052933333333     0.091933333333     0.381050000000    -0.191361   
O20      O      0.052933333333     0.091933333333     0.881050000000    -0.191361   
O20      O      0.052933333333     0.425266666667     0.381050000000    -0.191361   
O20      O      0.052933333333     0.425266666667     0.881050000000    -0.191361   
O20      O      0.052933333333     0.758600000000     0.381050000000    -0.191361   
O20      O      0.052933333333     0.758600000000     0.881050000000    -0.191361   
O20      O      0.386266666667     0.091933333333     0.381050000000    -0.191361   
O20      O      0.386266666667     0.091933333333     0.881050000000    -0.191361   
O20      O      0.386266666667     0.425266666667     0.381050000000    -0.191361   
O20      O      0.386266666667     0.425266666667     0.881050000000    -0.191361   
O20      O      0.386266666667     0.758600000000     0.381050000000    -0.191361   
O20      O      0.386266666667     0.758600000000     0.881050000000    -0.191361   
O20      O      0.719600000000     0.091933333333     0.381050000000    -0.191361   
O20      O      0.719600000000     0.091933333333     0.881050000000    -0.191361   
O20      O      0.719600000000     0.425266666667     0.381050000000    -0.191361   
O20      O      0.719600000000     0.425266666667     0.881050000000    -0.191361   
O20      O      0.719600000000     0.758600000000     0.381050000000    -0.191361   
O20      O      0.719600000000     0.758600000000     0.881050000000    -0.191361   


