data_PEVLIN_clean

_audit_creation_method RASPA-1.0
_audit_creation_date 2025-9-8
_audit_author_name ''

_cell_length_a    6.9059
_cell_length_b    9.989
_cell_length_c    11.0921
_cell_angle_alpha 116.761
_cell_angle_beta  104.274
_cell_angle_gamma 90
_cell_volume      29549.1

_symmetry_cell_setting          triclinic
_symmetry_space_group_name_Hall 'P 1'
_symmetry_space_group_name_H-M  'P 1'
_symmetry_Int_Tables_number     1

_symmetry_equiv_pos_as_xyz 'x,y,z'

loop_
_atom_site_label
_atom_site_type_symbol
_atom_site_fract_x
_atom_site_fract_y
_atom_site_fract_z
_atom_site_charge
C        C      0.085160000000     0.326466666667     0.214133333333    -0.177      
C        C      0.080800000000     0.275133333333     0.200800000000    -0.177      
C        C      0.095600000000     0.260266666667     0.235400000000    -0.177      
C        C      0.115580000000     0.294766666667     0.281000000000    -0.177      
C        C      0.118840000000     0.012500000000     0.293200000000    -0.177      
C        C      0.103720000000     0.028733333333     0.259933333333    -0.177      
C        C      0.055700000000     0.055566666667     0.193333333333    -0.177      
C        C      0.033800000000     0.056900000000     0.148400000000    -0.177      
C        C      0.059600000000     0.234733333333     0.151600000000    -0.177      
C        C      0.140440000000     0.051833333333     0.008800000000    -0.177      
C        C      0.185160000000     0.221000000000     0.214133333333    -0.177      
C        C      0.180800000000     0.259000000000     0.200800000000    -0.177      
C        C      0.195600000000     0.308466666667     0.235400000000    -0.177      
C        C      0.015580000000     0.319566666667     0.281000000000    -0.177      
C        C      0.018840000000     0.280700000000     0.293200000000    -0.177      
C        C      0.003720000000     0.231200000000     0.259933333333    -0.177      
C        C      0.155700000000     0.137766666667     0.193333333333    -0.177      
C        C      0.133800000000     0.091500000000     0.148400000000    -0.177      
C        C      0.159600000000     0.250200000000     0.151600000000    -0.177      
C        C      0.040440000000     0.290300000000     0.008800000000    -0.177      
C        C      0.085160000000     0.326466666667     0.547466666667    -0.177      
C        C      0.080800000000     0.275133333333     0.534133333333    -0.177      
C        C      0.095600000000     0.260266666667     0.568733333333    -0.177      
C        C      0.115580000000     0.294766666667     0.614333333333    -0.177      
C        C      0.118840000000     0.012500000000     0.626533333333    -0.177      
C        C      0.103720000000     0.028733333333     0.593266666667    -0.177      
C        C      0.055700000000     0.055566666667     0.526666666667    -0.177      
C        C      0.033800000000     0.056900000000     0.481733333333    -0.177      
C        C      0.059600000000     0.234733333333     0.484933333333    -0.177      
C        C      0.140440000000     0.051833333333     0.342133333333    -0.177      
C        C      0.185160000000     0.221000000000     0.547466666667    -0.177      
C        C      0.180800000000     0.259000000000     0.534133333333    -0.177      
C        C      0.195600000000     0.308466666667     0.568733333333    -0.177      
C        C      0.015580000000     0.319566666667     0.614333333333    -0.177      
C        C      0.018840000000     0.280700000000     0.626533333333    -0.177      
C        C      0.003720000000     0.231200000000     0.593266666667    -0.177      
C        C      0.155700000000     0.137766666667     0.526666666667    -0.177      
C        C      0.133800000000     0.091500000000     0.481733333333    -0.177      
C        C      0.159600000000     0.250200000000     0.484933333333    -0.177      
C        C      0.040440000000     0.290300000000     0.342133333333    -0.177      
C        C      0.085160000000     0.326466666667     0.880800000000    -0.177      
C        C      0.080800000000     0.275133333333     0.867466666667    -0.177      
C        C      0.095600000000     0.260266666667     0.902066666667    -0.177      
C        C      0.115580000000     0.294766666667     0.947666666667    -0.177      
C        C      0.118840000000     0.012500000000     0.959866666667    -0.177      
C        C      0.103720000000     0.028733333333     0.926600000000    -0.177      
C        C      0.055700000000     0.055566666667     0.860000000000    -0.177      
C        C      0.033800000000     0.056900000000     0.815066666667    -0.177      
C        C      0.059600000000     0.234733333333     0.818266666667    -0.177      
C        C      0.140440000000     0.051833333333     0.675466666667    -0.177      
C        C      0.185160000000     0.221000000000     0.880800000000    -0.177      
C        C      0.180800000000     0.259000000000     0.867466666667    -0.177      
C        C      0.195600000000     0.308466666667     0.902066666667    -0.177      
C        C      0.015580000000     0.319566666667     0.947666666667    -0.177      
C        C      0.018840000000     0.280700000000     0.959866666667    -0.177      
C        C      0.003720000000     0.231200000000     0.926600000000    -0.177      
C        C      0.155700000000     0.137766666667     0.860000000000    -0.177      
C        C      0.133800000000     0.091500000000     0.815066666667    -0.177      
C        C      0.159600000000     0.250200000000     0.818266666667    -0.177      
C        C      0.040440000000     0.290300000000     0.675466666667    -0.177      
C        C      0.085160000000     0.659800000000     0.214133333333    -0.177      
C        C      0.080800000000     0.608466666667     0.200800000000    -0.177      
C        C      0.095600000000     0.593600000000     0.235400000000    -0.177      
C        C      0.115580000000     0.628100000000     0.281000000000    -0.177      
C        C      0.118840000000     0.345833333333     0.293200000000    -0.177      
C        C      0.103720000000     0.362066666667     0.259933333333    -0.177      
C        C      0.055700000000     0.388900000000     0.193333333333    -0.177      
C        C      0.033800000000     0.390233333333     0.148400000000    -0.177      
C        C      0.059600000000     0.568066666667     0.151600000000    -0.177      
C        C      0.140440000000     0.385166666667     0.008800000000    -0.177      
C        C      0.185160000000     0.554333333333     0.214133333333    -0.177      
C        C      0.180800000000     0.592333333333     0.200800000000    -0.177      
C        C      0.195600000000     0.641800000000     0.235400000000    -0.177      
C        C      0.015580000000     0.652900000000     0.281000000000    -0.177      
C        C      0.018840000000     0.614033333333     0.293200000000    -0.177      
C        C      0.003720000000     0.564533333333     0.259933333333    -0.177      
C        C      0.155700000000     0.471100000000     0.193333333333    -0.177      
C        C      0.133800000000     0.424833333333     0.148400000000    -0.177      
C        C      0.159600000000     0.583533333333     0.151600000000    -0.177      
C        C      0.040440000000     0.623633333333     0.008800000000    -0.177      
C        C      0.085160000000     0.659800000000     0.547466666667    -0.177      
C        C      0.080800000000     0.608466666667     0.534133333333    -0.177      
C        C      0.095600000000     0.593600000000     0.568733333333    -0.177      
C        C      0.115580000000     0.628100000000     0.614333333333    -0.177      
C        C      0.118840000000     0.345833333333     0.626533333333    -0.177      
C        C      0.103720000000     0.362066666667     0.593266666667    -0.177      
C        C      0.055700000000     0.388900000000     0.526666666667    -0.177      
C        C      0.033800000000     0.390233333333     0.481733333333    -0.177      
C        C      0.059600000000     0.568066666667     0.484933333333    -0.177      
C        C      0.140440000000     0.385166666667     0.342133333333    -0.177      
C        C      0.185160000000     0.554333333333     0.547466666667    -0.177      
C        C      0.180800000000     0.592333333333     0.534133333333    -0.177      
C        C      0.195600000000     0.641800000000     0.568733333333    -0.177      
C        C      0.015580000000     0.652900000000     0.614333333333    -0.177      
C        C      0.018840000000     0.614033333333     0.626533333333    -0.177      
C        C      0.003720000000     0.564533333333     0.593266666667    -0.177      
C        C      0.155700000000     0.471100000000     0.526666666667    -0.177      
C        C      0.133800000000     0.424833333333     0.481733333333    -0.177      
C        C      0.159600000000     0.583533333333     0.484933333333    -0.177      
C        C      0.040440000000     0.623633333333     0.342133333333    -0.177      
C        C      0.085160000000     0.659800000000     0.880800000000    -0.177      
C        C      0.080800000000     0.608466666667     0.867466666667    -0.177      
C        C      0.095600000000     0.593600000000     0.902066666667    -0.177      
C        C      0.115580000000     0.628100000000     0.947666666667    -0.177      
C        C      0.118840000000     0.345833333333     0.959866666667    -0.177      
C        C      0.103720000000     0.362066666667     0.926600000000    -0.177      
C        C      0.055700000000     0.388900000000     0.860000000000    -0.177      
C        C      0.033800000000     0.390233333333     0.815066666667    -0.177      
C        C      0.059600000000     0.568066666667     0.818266666667    -0.177      
C        C      0.140440000000     0.385166666667     0.675466666667    -0.177      
C        C      0.185160000000     0.554333333333     0.880800000000    -0.177      
C        C      0.180800000000     0.592333333333     0.867466666667    -0.177      
C        C      0.195600000000     0.641800000000     0.902066666667    -0.177      
C        C      0.015580000000     0.652900000000     0.947666666667    -0.177      
C        C      0.018840000000     0.614033333333     0.959866666667    -0.177      
C        C      0.003720000000     0.564533333333     0.926600000000    -0.177      
C        C      0.155700000000     0.471100000000     0.860000000000    -0.177      
C        C      0.133800000000     0.424833333333     0.815066666667    -0.177      
C        C      0.159600000000     0.583533333333     0.818266666667    -0.177      
C        C      0.040440000000     0.623633333333     0.675466666667    -0.177      
C        C      0.085160000000     0.993133333333     0.214133333333    -0.177      
C        C      0.080800000000     0.941800000000     0.200800000000    -0.177      
C        C      0.095600000000     0.926933333333     0.235400000000    -0.177      
C        C      0.115580000000     0.961433333333     0.281000000000    -0.177      
C        C      0.118840000000     0.679166666667     0.293200000000    -0.177      
C        C      0.103720000000     0.695400000000     0.259933333333    -0.177      
C        C      0.055700000000     0.722233333333     0.193333333333    -0.177      
C        C      0.033800000000     0.723566666667     0.148400000000    -0.177      
C        C      0.059600000000     0.901400000000     0.151600000000    -0.177      
C        C      0.140440000000     0.718500000000     0.008800000000    -0.177      
C        C      0.185160000000     0.887666666667     0.214133333333    -0.177      
C        C      0.180800000000     0.925666666667     0.200800000000    -0.177      
C        C      0.195600000000     0.975133333333     0.235400000000    -0.177      
C        C      0.015580000000     0.986233333333     0.281000000000    -0.177      
C        C      0.018840000000     0.947366666667     0.293200000000    -0.177      
C        C      0.003720000000     0.897866666667     0.259933333333    -0.177      
C        C      0.155700000000     0.804433333333     0.193333333333    -0.177      
C        C      0.133800000000     0.758166666667     0.148400000000    -0.177      
C        C      0.159600000000     0.916866666667     0.151600000000    -0.177      
C        C      0.040440000000     0.956966666667     0.008800000000    -0.177      
C        C      0.085160000000     0.993133333333     0.547466666667    -0.177      
C        C      0.080800000000     0.941800000000     0.534133333333    -0.177      
C        C      0.095600000000     0.926933333333     0.568733333333    -0.177      
C        C      0.115580000000     0.961433333333     0.614333333333    -0.177      
C        C      0.118840000000     0.679166666667     0.626533333333    -0.177      
C        C      0.103720000000     0.695400000000     0.593266666667    -0.177      
C        C      0.055700000000     0.722233333333     0.526666666667    -0.177      
C        C      0.033800000000     0.723566666667     0.481733333333    -0.177      
C        C      0.059600000000     0.901400000000     0.484933333333    -0.177      
C        C      0.140440000000     0.718500000000     0.342133333333    -0.177      
C        C      0.185160000000     0.887666666667     0.547466666667    -0.177      
C        C      0.180800000000     0.925666666667     0.534133333333    -0.177      
C        C      0.195600000000     0.975133333333     0.568733333333    -0.177      
C        C      0.015580000000     0.986233333333     0.614333333333    -0.177      
C        C      0.018840000000     0.947366666667     0.626533333333    -0.177      
C        C      0.003720000000     0.897866666667     0.593266666667    -0.177      
C        C      0.155700000000     0.804433333333     0.526666666667    -0.177      
C        C      0.133800000000     0.758166666667     0.481733333333    -0.177      
C        C      0.159600000000     0.916866666667     0.484933333333    -0.177      
C        C      0.040440000000     0.956966666667     0.342133333333    -0.177      
C        C      0.085160000000     0.993133333333     0.880800000000    -0.177      
C        C      0.080800000000     0.941800000000     0.867466666667    -0.177      
C        C      0.095600000000     0.926933333333     0.902066666667    -0.177      
C        C      0.115580000000     0.961433333333     0.947666666667    -0.177      
C        C      0.118840000000     0.679166666667     0.959866666667    -0.177      
C        C      0.103720000000     0.695400000000     0.926600000000    -0.177      
C        C      0.055700000000     0.722233333333     0.860000000000    -0.177      
C        C      0.033800000000     0.723566666667     0.815066666667    -0.177      
C        C      0.059600000000     0.901400000000     0.818266666667    -0.177      
C        C      0.140440000000     0.718500000000     0.675466666667    -0.177      
C        C      0.185160000000     0.887666666667     0.880800000000    -0.177      
C        C      0.180800000000     0.925666666667     0.867466666667    -0.177      
C        C      0.195600000000     0.975133333333     0.902066666667    -0.177      
C        C      0.015580000000     0.986233333333     0.947666666667    -0.177      
C        C      0.018840000000     0.947366666667     0.959866666667    -0.177      
C        C      0.003720000000     0.897866666667     0.926600000000    -0.177      
C        C      0.155700000000     0.804433333333     0.860000000000    -0.177      
C        C      0.133800000000     0.758166666667     0.815066666667    -0.177      
C        C      0.159600000000     0.916866666667     0.818266666667    -0.177      
C        C      0.040440000000     0.956966666667     0.675466666667    -0.177      
C        C      0.285160000000     0.326466666667     0.214133333333    -0.177      
C        C      0.280800000000     0.275133333333     0.200800000000    -0.177      
C        C      0.295600000000     0.260266666667     0.235400000000    -0.177      
C        C      0.315580000000     0.294766666667     0.281000000000    -0.177      
C        C      0.318840000000     0.012500000000     0.293200000000    -0.177      
C        C      0.303720000000     0.028733333333     0.259933333333    -0.177      
C        C      0.255700000000     0.055566666667     0.193333333333    -0.177      
C        C      0.233800000000     0.056900000000     0.148400000000    -0.177      
C        C      0.259600000000     0.234733333333     0.151600000000    -0.177      
C        C      0.340440000000     0.051833333333     0.008800000000    -0.177      
C        C      0.385160000000     0.221000000000     0.214133333333    -0.177      
C        C      0.380800000000     0.259000000000     0.200800000000    -0.177      
C        C      0.395600000000     0.308466666667     0.235400000000    -0.177      
C        C      0.215580000000     0.319566666667     0.281000000000    -0.177      
C        C      0.218840000000     0.280700000000     0.293200000000    -0.177      
C        C      0.203720000000     0.231200000000     0.259933333333    -0.177      
C        C      0.355700000000     0.137766666667     0.193333333333    -0.177      
C        C      0.333800000000     0.091500000000     0.148400000000    -0.177      
C        C      0.359600000000     0.250200000000     0.151600000000    -0.177      
C        C      0.240440000000     0.290300000000     0.008800000000    -0.177      
C        C      0.285160000000     0.326466666667     0.547466666667    -0.177      
C        C      0.280800000000     0.275133333333     0.534133333333    -0.177      
C        C      0.295600000000     0.260266666667     0.568733333333    -0.177      
C        C      0.315580000000     0.294766666667     0.614333333333    -0.177      
C        C      0.318840000000     0.012500000000     0.626533333333    -0.177      
C        C      0.303720000000     0.028733333333     0.593266666667    -0.177      
C        C      0.255700000000     0.055566666667     0.526666666667    -0.177      
C        C      0.233800000000     0.056900000000     0.481733333333    -0.177      
C        C      0.259600000000     0.234733333333     0.484933333333    -0.177      
C        C      0.340440000000     0.051833333333     0.342133333333    -0.177      
C        C      0.385160000000     0.221000000000     0.547466666667    -0.177      
C        C      0.380800000000     0.259000000000     0.534133333333    -0.177      
C        C      0.395600000000     0.308466666667     0.568733333333    -0.177      
C        C      0.215580000000     0.319566666667     0.614333333333    -0.177      
C        C      0.218840000000     0.280700000000     0.626533333333    -0.177      
C        C      0.203720000000     0.231200000000     0.593266666667    -0.177      
C        C      0.355700000000     0.137766666667     0.526666666667    -0.177      
C        C      0.333800000000     0.091500000000     0.481733333333    -0.177      
C        C      0.359600000000     0.250200000000     0.484933333333    -0.177      
C        C      0.240440000000     0.290300000000     0.342133333333    -0.177      
C        C      0.285160000000     0.326466666667     0.880800000000    -0.177      
C        C      0.280800000000     0.275133333333     0.867466666667    -0.177      
C        C      0.295600000000     0.260266666667     0.902066666667    -0.177      
C        C      0.315580000000     0.294766666667     0.947666666667    -0.177      
C        C      0.318840000000     0.012500000000     0.959866666667    -0.177      
C        C      0.303720000000     0.028733333333     0.926600000000    -0.177      
C        C      0.255700000000     0.055566666667     0.860000000000    -0.177      
C        C      0.233800000000     0.056900000000     0.815066666667    -0.177      
C        C      0.259600000000     0.234733333333     0.818266666667    -0.177      
C        C      0.340440000000     0.051833333333     0.675466666667    -0.177      
C        C      0.385160000000     0.221000000000     0.880800000000    -0.177      
C        C      0.380800000000     0.259000000000     0.867466666667    -0.177      
C        C      0.395600000000     0.308466666667     0.902066666667    -0.177      
C        C      0.215580000000     0.319566666667     0.947666666667    -0.177      
C        C      0.218840000000     0.280700000000     0.959866666667    -0.177      
C        C      0.203720000000     0.231200000000     0.926600000000    -0.177      
C        C      0.355700000000     0.137766666667     0.860000000000    -0.177      
C        C      0.333800000000     0.091500000000     0.815066666667    -0.177      
C        C      0.359600000000     0.250200000000     0.818266666667    -0.177      
C        C      0.240440000000     0.290300000000     0.675466666667    -0.177      
C        C      0.285160000000     0.659800000000     0.214133333333    -0.177      
C        C      0.280800000000     0.608466666667     0.200800000000    -0.177      
C        C      0.295600000000     0.593600000000     0.235400000000    -0.177      
C        C      0.315580000000     0.628100000000     0.281000000000    -0.177      
C        C      0.318840000000     0.345833333333     0.293200000000    -0.177      
C        C      0.303720000000     0.362066666667     0.259933333333    -0.177      
C        C      0.255700000000     0.388900000000     0.193333333333    -0.177      
C        C      0.233800000000     0.390233333333     0.148400000000    -0.177      
C        C      0.259600000000     0.568066666667     0.151600000000    -0.177      
C        C      0.340440000000     0.385166666667     0.008800000000    -0.177      
C        C      0.385160000000     0.554333333333     0.214133333333    -0.177      
C        C      0.380800000000     0.592333333333     0.200800000000    -0.177      
C        C      0.395600000000     0.641800000000     0.235400000000    -0.177      
C        C      0.215580000000     0.652900000000     0.281000000000    -0.177      
C        C      0.218840000000     0.614033333333     0.293200000000    -0.177      
C        C      0.203720000000     0.564533333333     0.259933333333    -0.177      
C        C      0.355700000000     0.471100000000     0.193333333333    -0.177      
C        C      0.333800000000     0.424833333333     0.148400000000    -0.177      
C        C      0.359600000000     0.583533333333     0.151600000000    -0.177      
C        C      0.240440000000     0.623633333333     0.008800000000    -0.177      
C        C      0.285160000000     0.659800000000     0.547466666667    -0.177      
C        C      0.280800000000     0.608466666667     0.534133333333    -0.177      
C        C      0.295600000000     0.593600000000     0.568733333333    -0.177      
C        C      0.315580000000     0.628100000000     0.614333333333    -0.177      
C        C      0.318840000000     0.345833333333     0.626533333333    -0.177      
C        C      0.303720000000     0.362066666667     0.593266666667    -0.177      
C        C      0.255700000000     0.388900000000     0.526666666667    -0.177      
C        C      0.233800000000     0.390233333333     0.481733333333    -0.177      
C        C      0.259600000000     0.568066666667     0.484933333333    -0.177      
C        C      0.340440000000     0.385166666667     0.342133333333    -0.177      
C        C      0.385160000000     0.554333333333     0.547466666667    -0.177      
C        C      0.380800000000     0.592333333333     0.534133333333    -0.177      
C        C      0.395600000000     0.641800000000     0.568733333333    -0.177      
C        C      0.215580000000     0.652900000000     0.614333333333    -0.177      
C        C      0.218840000000     0.614033333333     0.626533333333    -0.177      
C        C      0.203720000000     0.564533333333     0.593266666667    -0.177      
C        C      0.355700000000     0.471100000000     0.526666666667    -0.177      
C        C      0.333800000000     0.424833333333     0.481733333333    -0.177      
C        C      0.359600000000     0.583533333333     0.484933333333    -0.177      
C        C      0.240440000000     0.623633333333     0.342133333333    -0.177      
C        C      0.285160000000     0.659800000000     0.880800000000    -0.177      
C        C      0.280800000000     0.608466666667     0.867466666667    -0.177      
C        C      0.295600000000     0.593600000000     0.902066666667    -0.177      
C        C      0.315580000000     0.628100000000     0.947666666667    -0.177      
C        C      0.318840000000     0.345833333333     0.959866666667    -0.177      
C        C      0.303720000000     0.362066666667     0.926600000000    -0.177      
C        C      0.255700000000     0.388900000000     0.860000000000    -0.177      
C        C      0.233800000000     0.390233333333     0.815066666667    -0.177      
C        C      0.259600000000     0.568066666667     0.818266666667    -0.177      
C        C      0.340440000000     0.385166666667     0.675466666667    -0.177      
C        C      0.385160000000     0.554333333333     0.880800000000    -0.177      
C        C      0.380800000000     0.592333333333     0.867466666667    -0.177      
C        C      0.395600000000     0.641800000000     0.902066666667    -0.177      
C        C      0.215580000000     0.652900000000     0.947666666667    -0.177      
C        C      0.218840000000     0.614033333333     0.959866666667    -0.177      
C        C      0.203720000000     0.564533333333     0.926600000000    -0.177      
C        C      0.355700000000     0.471100000000     0.860000000000    -0.177      
C        C      0.333800000000     0.424833333333     0.815066666667    -0.177      
C        C      0.359600000000     0.583533333333     0.818266666667    -0.177      
C        C      0.240440000000     0.623633333333     0.675466666667    -0.177      
C        C      0.285160000000     0.993133333333     0.214133333333    -0.177      
C        C      0.280800000000     0.941800000000     0.200800000000    -0.177      
C        C      0.295600000000     0.926933333333     0.235400000000    -0.177      
C        C      0.315580000000     0.961433333333     0.281000000000    -0.177      
C        C      0.318840000000     0.679166666667     0.293200000000    -0.177      
C        C      0.303720000000     0.695400000000     0.259933333333    -0.177      
C        C      0.255700000000     0.722233333333     0.193333333333    -0.177      
C        C      0.233800000000     0.723566666667     0.148400000000    -0.177      
C        C      0.259600000000     0.901400000000     0.151600000000    -0.177      
C        C      0.340440000000     0.718500000000     0.008800000000    -0.177      
C        C      0.385160000000     0.887666666667     0.214133333333    -0.177      
C        C      0.380800000000     0.925666666667     0.200800000000    -0.177      
C        C      0.395600000000     0.975133333333     0.235400000000    -0.177      
C        C      0.215580000000     0.986233333333     0.281000000000    -0.177      
C        C      0.218840000000     0.947366666667     0.293200000000    -0.177      
C        C      0.203720000000     0.897866666667     0.259933333333    -0.177      
C        C      0.355700000000     0.804433333333     0.193333333333    -0.177      
C        C      0.333800000000     0.758166666667     0.148400000000    -0.177      
C        C      0.359600000000     0.916866666667     0.151600000000    -0.177      
C        C      0.240440000000     0.956966666667     0.008800000000    -0.177      
C        C      0.285160000000     0.993133333333     0.547466666667    -0.177      
C        C      0.280800000000     0.941800000000     0.534133333333    -0.177      
C        C      0.295600000000     0.926933333333     0.568733333333    -0.177      
C        C      0.315580000000     0.961433333333     0.614333333333    -0.177      
C        C      0.318840000000     0.679166666667     0.626533333333    -0.177      
C        C      0.303720000000     0.695400000000     0.593266666667    -0.177      
C        C      0.255700000000     0.722233333333     0.526666666667    -0.177      
C        C      0.233800000000     0.723566666667     0.481733333333    -0.177      
C        C      0.259600000000     0.901400000000     0.484933333333    -0.177      
C        C      0.340440000000     0.718500000000     0.342133333333    -0.177      
C        C      0.385160000000     0.887666666667     0.547466666667    -0.177      
C        C      0.380800000000     0.925666666667     0.534133333333    -0.177      
C        C      0.395600000000     0.975133333333     0.568733333333    -0.177      
C        C      0.215580000000     0.986233333333     0.614333333333    -0.177      
C        C      0.218840000000     0.947366666667     0.626533333333    -0.177      
C        C      0.203720000000     0.897866666667     0.593266666667    -0.177      
C        C      0.355700000000     0.804433333333     0.526666666667    -0.177      
C        C      0.333800000000     0.758166666667     0.481733333333    -0.177      
C        C      0.359600000000     0.916866666667     0.484933333333    -0.177      
C        C      0.240440000000     0.956966666667     0.342133333333    -0.177      
C        C      0.285160000000     0.993133333333     0.880800000000    -0.177      
C        C      0.280800000000     0.941800000000     0.867466666667    -0.177      
C        C      0.295600000000     0.926933333333     0.902066666667    -0.177      
C        C      0.315580000000     0.961433333333     0.947666666667    -0.177      
C        C      0.318840000000     0.679166666667     0.959866666667    -0.177      
C        C      0.303720000000     0.695400000000     0.926600000000    -0.177      
C        C      0.255700000000     0.722233333333     0.860000000000    -0.177      
C        C      0.233800000000     0.723566666667     0.815066666667    -0.177      
C        C      0.259600000000     0.901400000000     0.818266666667    -0.177      
C        C      0.340440000000     0.718500000000     0.675466666667    -0.177      
C        C      0.385160000000     0.887666666667     0.880800000000    -0.177      
C        C      0.380800000000     0.925666666667     0.867466666667    -0.177      
C        C      0.395600000000     0.975133333333     0.902066666667    -0.177      
C        C      0.215580000000     0.986233333333     0.947666666667    -0.177      
C        C      0.218840000000     0.947366666667     0.959866666667    -0.177      
C        C      0.203720000000     0.897866666667     0.926600000000    -0.177      
C        C      0.355700000000     0.804433333333     0.860000000000    -0.177      
C        C      0.333800000000     0.758166666667     0.815066666667    -0.177      
C        C      0.359600000000     0.916866666667     0.818266666667    -0.177      
C        C      0.240440000000     0.956966666667     0.675466666667    -0.177      
C        C      0.485160000000     0.326466666667     0.214133333333    -0.177      
C        C      0.480800000000     0.275133333333     0.200800000000    -0.177      
C        C      0.495600000000     0.260266666667     0.235400000000    -0.177      
C        C      0.515580000000     0.294766666667     0.281000000000    -0.177      
C        C      0.518840000000     0.012500000000     0.293200000000    -0.177      
C        C      0.503720000000     0.028733333333     0.259933333333    -0.177      
C        C      0.455700000000     0.055566666667     0.193333333333    -0.177      
C        C      0.433800000000     0.056900000000     0.148400000000    -0.177      
C        C      0.459600000000     0.234733333333     0.151600000000    -0.177      
C        C      0.540440000000     0.051833333333     0.008800000000    -0.177      
C        C      0.585160000000     0.221000000000     0.214133333333    -0.177      
C        C      0.580800000000     0.259000000000     0.200800000000    -0.177      
C        C      0.595600000000     0.308466666667     0.235400000000    -0.177      
C        C      0.415580000000     0.319566666667     0.281000000000    -0.177      
C        C      0.418840000000     0.280700000000     0.293200000000    -0.177      
C        C      0.403720000000     0.231200000000     0.259933333333    -0.177      
C        C      0.555700000000     0.137766666667     0.193333333333    -0.177      
C        C      0.533800000000     0.091500000000     0.148400000000    -0.177      
C        C      0.559600000000     0.250200000000     0.151600000000    -0.177      
C        C      0.440440000000     0.290300000000     0.008800000000    -0.177      
C        C      0.485160000000     0.326466666667     0.547466666667    -0.177      
C        C      0.480800000000     0.275133333333     0.534133333333    -0.177      
C        C      0.495600000000     0.260266666667     0.568733333333    -0.177      
C        C      0.515580000000     0.294766666667     0.614333333333    -0.177      
C        C      0.518840000000     0.012500000000     0.626533333333    -0.177      
C        C      0.503720000000     0.028733333333     0.593266666667    -0.177      
C        C      0.455700000000     0.055566666667     0.526666666667    -0.177      
C        C      0.433800000000     0.056900000000     0.481733333333    -0.177      
C        C      0.459600000000     0.234733333333     0.484933333333    -0.177      
C        C      0.540440000000     0.051833333333     0.342133333333    -0.177      
C        C      0.585160000000     0.221000000000     0.547466666667    -0.177      
C        C      0.580800000000     0.259000000000     0.534133333333    -0.177      
C        C      0.595600000000     0.308466666667     0.568733333333    -0.177      
C        C      0.415580000000     0.319566666667     0.614333333333    -0.177      
C        C      0.418840000000     0.280700000000     0.626533333333    -0.177      
C        C      0.403720000000     0.231200000000     0.593266666667    -0.177      
C        C      0.555700000000     0.137766666667     0.526666666667    -0.177      
C        C      0.533800000000     0.091500000000     0.481733333333    -0.177      
C        C      0.559600000000     0.250200000000     0.484933333333    -0.177      
C        C      0.440440000000     0.290300000000     0.342133333333    -0.177      
C        C      0.485160000000     0.326466666667     0.880800000000    -0.177      
C        C      0.480800000000     0.275133333333     0.867466666667    -0.177      
C        C      0.495600000000     0.260266666667     0.902066666667    -0.177      
C        C      0.515580000000     0.294766666667     0.947666666667    -0.177      
C        C      0.518840000000     0.012500000000     0.959866666667    -0.177      
C        C      0.503720000000     0.028733333333     0.926600000000    -0.177      
C        C      0.455700000000     0.055566666667     0.860000000000    -0.177      
C        C      0.433800000000     0.056900000000     0.815066666667    -0.177      
C        C      0.459600000000     0.234733333333     0.818266666667    -0.177      
C        C      0.540440000000     0.051833333333     0.675466666667    -0.177      
C        C      0.585160000000     0.221000000000     0.880800000000    -0.177      
C        C      0.580800000000     0.259000000000     0.867466666667    -0.177      
C        C      0.595600000000     0.308466666667     0.902066666667    -0.177      
C        C      0.415580000000     0.319566666667     0.947666666667    -0.177      
C        C      0.418840000000     0.280700000000     0.959866666667    -0.177      
C        C      0.403720000000     0.231200000000     0.926600000000    -0.177      
C        C      0.555700000000     0.137766666667     0.860000000000    -0.177      
C        C      0.533800000000     0.091500000000     0.815066666667    -0.177      
C        C      0.559600000000     0.250200000000     0.818266666667    -0.177      
C        C      0.440440000000     0.290300000000     0.675466666667    -0.177      
C        C      0.485160000000     0.659800000000     0.214133333333    -0.177      
C        C      0.480800000000     0.608466666667     0.200800000000    -0.177      
C        C      0.495600000000     0.593600000000     0.235400000000    -0.177      
C        C      0.515580000000     0.628100000000     0.281000000000    -0.177      
C        C      0.518840000000     0.345833333333     0.293200000000    -0.177      
C        C      0.503720000000     0.362066666667     0.259933333333    -0.177      
C        C      0.455700000000     0.388900000000     0.193333333333    -0.177      
C        C      0.433800000000     0.390233333333     0.148400000000    -0.177      
C        C      0.459600000000     0.568066666667     0.151600000000    -0.177      
C        C      0.540440000000     0.385166666667     0.008800000000    -0.177      
C        C      0.585160000000     0.554333333333     0.214133333333    -0.177      
C        C      0.580800000000     0.592333333333     0.200800000000    -0.177      
C        C      0.595600000000     0.641800000000     0.235400000000    -0.177      
C        C      0.415580000000     0.652900000000     0.281000000000    -0.177      
C        C      0.418840000000     0.614033333333     0.293200000000    -0.177      
C        C      0.403720000000     0.564533333333     0.259933333333    -0.177      
C        C      0.555700000000     0.471100000000     0.193333333333    -0.177      
C        C      0.533800000000     0.424833333333     0.148400000000    -0.177      
C        C      0.559600000000     0.583533333333     0.151600000000    -0.177      
C        C      0.440440000000     0.623633333333     0.008800000000    -0.177      
C        C      0.485160000000     0.659800000000     0.547466666667    -0.177      
C        C      0.480800000000     0.608466666667     0.534133333333    -0.177      
C        C      0.495600000000     0.593600000000     0.568733333333    -0.177      
C        C      0.515580000000     0.628100000000     0.614333333333    -0.177      
C        C      0.518840000000     0.345833333333     0.626533333333    -0.177      
C        C      0.503720000000     0.362066666667     0.593266666667    -0.177      
C        C      0.455700000000     0.388900000000     0.526666666667    -0.177      
C        C      0.433800000000     0.390233333333     0.481733333333    -0.177      
C        C      0.459600000000     0.568066666667     0.484933333333    -0.177      
C        C      0.540440000000     0.385166666667     0.342133333333    -0.177      
C        C      0.585160000000     0.554333333333     0.547466666667    -0.177      
C        C      0.580800000000     0.592333333333     0.534133333333    -0.177      
C        C      0.595600000000     0.641800000000     0.568733333333    -0.177      
C        C      0.415580000000     0.652900000000     0.614333333333    -0.177      
C        C      0.418840000000     0.614033333333     0.626533333333    -0.177      
C        C      0.403720000000     0.564533333333     0.593266666667    -0.177      
C        C      0.555700000000     0.471100000000     0.526666666667    -0.177      
C        C      0.533800000000     0.424833333333     0.481733333333    -0.177      
C        C      0.559600000000     0.583533333333     0.484933333333    -0.177      
C        C      0.440440000000     0.623633333333     0.342133333333    -0.177      
C        C      0.485160000000     0.659800000000     0.880800000000    -0.177      
C        C      0.480800000000     0.608466666667     0.867466666667    -0.177      
C        C      0.495600000000     0.593600000000     0.902066666667    -0.177      
C        C      0.515580000000     0.628100000000     0.947666666667    -0.177      
C        C      0.518840000000     0.345833333333     0.959866666667    -0.177      
C        C      0.503720000000     0.362066666667     0.926600000000    -0.177      
C        C      0.455700000000     0.388900000000     0.860000000000    -0.177      
C        C      0.433800000000     0.390233333333     0.815066666667    -0.177      
C        C      0.459600000000     0.568066666667     0.818266666667    -0.177      
C        C      0.540440000000     0.385166666667     0.675466666667    -0.177      
C        C      0.585160000000     0.554333333333     0.880800000000    -0.177      
C        C      0.580800000000     0.592333333333     0.867466666667    -0.177      
C        C      0.595600000000     0.641800000000     0.902066666667    -0.177      
C        C      0.415580000000     0.652900000000     0.947666666667    -0.177      
C        C      0.418840000000     0.614033333333     0.959866666667    -0.177      
C        C      0.403720000000     0.564533333333     0.926600000000    -0.177      
C        C      0.555700000000     0.471100000000     0.860000000000    -0.177      
C        C      0.533800000000     0.424833333333     0.815066666667    -0.177      
C        C      0.559600000000     0.583533333333     0.818266666667    -0.177      
C        C      0.440440000000     0.623633333333     0.675466666667    -0.177      
C        C      0.485160000000     0.993133333333     0.214133333333    -0.177      
C        C      0.480800000000     0.941800000000     0.200800000000    -0.177      
C        C      0.495600000000     0.926933333333     0.235400000000    -0.177      
C        C      0.515580000000     0.961433333333     0.281000000000    -0.177      
C        C      0.518840000000     0.679166666667     0.293200000000    -0.177      
C        C      0.503720000000     0.695400000000     0.259933333333    -0.177      
C        C      0.455700000000     0.722233333333     0.193333333333    -0.177      
C        C      0.433800000000     0.723566666667     0.148400000000    -0.177      
C        C      0.459600000000     0.901400000000     0.151600000000    -0.177      
C        C      0.540440000000     0.718500000000     0.008800000000    -0.177      
C        C      0.585160000000     0.887666666667     0.214133333333    -0.177      
C        C      0.580800000000     0.925666666667     0.200800000000    -0.177      
C        C      0.595600000000     0.975133333333     0.235400000000    -0.177      
C        C      0.415580000000     0.986233333333     0.281000000000    -0.177      
C        C      0.418840000000     0.947366666667     0.293200000000    -0.177      
C        C      0.403720000000     0.897866666667     0.259933333333    -0.177      
C        C      0.555700000000     0.804433333333     0.193333333333    -0.177      
C        C      0.533800000000     0.758166666667     0.148400000000    -0.177      
C        C      0.559600000000     0.916866666667     0.151600000000    -0.177      
C        C      0.440440000000     0.956966666667     0.008800000000    -0.177      
C        C      0.485160000000     0.993133333333     0.547466666667    -0.177      
C        C      0.480800000000     0.941800000000     0.534133333333    -0.177      
C        C      0.495600000000     0.926933333333     0.568733333333    -0.177      
C        C      0.515580000000     0.961433333333     0.614333333333    -0.177      
C        C      0.518840000000     0.679166666667     0.626533333333    -0.177      
C        C      0.503720000000     0.695400000000     0.593266666667    -0.177      
C        C      0.455700000000     0.722233333333     0.526666666667    -0.177      
C        C      0.433800000000     0.723566666667     0.481733333333    -0.177      
C        C      0.459600000000     0.901400000000     0.484933333333    -0.177      
C        C      0.540440000000     0.718500000000     0.342133333333    -0.177      
C        C      0.585160000000     0.887666666667     0.547466666667    -0.177      
C        C      0.580800000000     0.925666666667     0.534133333333    -0.177      
C        C      0.595600000000     0.975133333333     0.568733333333    -0.177      
C        C      0.415580000000     0.986233333333     0.614333333333    -0.177      
C        C      0.418840000000     0.947366666667     0.626533333333    -0.177      
C        C      0.403720000000     0.897866666667     0.593266666667    -0.177      
C        C      0.555700000000     0.804433333333     0.526666666667    -0.177      
C        C      0.533800000000     0.758166666667     0.481733333333    -0.177      
C        C      0.559600000000     0.916866666667     0.484933333333    -0.177      
C        C      0.440440000000     0.956966666667     0.342133333333    -0.177      
C        C      0.485160000000     0.993133333333     0.880800000000    -0.177      
C        C      0.480800000000     0.941800000000     0.867466666667    -0.177      
C        C      0.495600000000     0.926933333333     0.902066666667    -0.177      
C        C      0.515580000000     0.961433333333     0.947666666667    -0.177      
C        C      0.518840000000     0.679166666667     0.959866666667    -0.177      
C        C      0.503720000000     0.695400000000     0.926600000000    -0.177      
C        C      0.455700000000     0.722233333333     0.860000000000    -0.177      
C        C      0.433800000000     0.723566666667     0.815066666667    -0.177      
C        C      0.459600000000     0.901400000000     0.818266666667    -0.177      
C        C      0.540440000000     0.718500000000     0.675466666667    -0.177      
C        C      0.585160000000     0.887666666667     0.880800000000    -0.177      
C        C      0.580800000000     0.925666666667     0.867466666667    -0.177      
C        C      0.595600000000     0.975133333333     0.902066666667    -0.177      
C        C      0.415580000000     0.986233333333     0.947666666667    -0.177      
C        C      0.418840000000     0.947366666667     0.959866666667    -0.177      
C        C      0.403720000000     0.897866666667     0.926600000000    -0.177      
C        C      0.555700000000     0.804433333333     0.860000000000    -0.177      
C        C      0.533800000000     0.758166666667     0.815066666667    -0.177      
C        C      0.559600000000     0.916866666667     0.818266666667    -0.177      
C        C      0.440440000000     0.956966666667     0.675466666667    -0.177      
C        C      0.685160000000     0.326466666667     0.214133333333    -0.177      
C        C      0.680800000000     0.275133333333     0.200800000000    -0.177      
C        C      0.695600000000     0.260266666667     0.235400000000    -0.177      
C        C      0.715580000000     0.294766666667     0.281000000000    -0.177      
C        C      0.718840000000     0.012500000000     0.293200000000    -0.177      
C        C      0.703720000000     0.028733333333     0.259933333333    -0.177      
C        C      0.655700000000     0.055566666667     0.193333333333    -0.177      
C        C      0.633800000000     0.056900000000     0.148400000000    -0.177      
C        C      0.659600000000     0.234733333333     0.151600000000    -0.177      
C        C      0.740440000000     0.051833333333     0.008800000000    -0.177      
C        C      0.785160000000     0.221000000000     0.214133333333    -0.177      
C        C      0.780800000000     0.259000000000     0.200800000000    -0.177      
C        C      0.795600000000     0.308466666667     0.235400000000    -0.177      
C        C      0.615580000000     0.319566666667     0.281000000000    -0.177      
C        C      0.618840000000     0.280700000000     0.293200000000    -0.177      
C        C      0.603720000000     0.231200000000     0.259933333333    -0.177      
C        C      0.755700000000     0.137766666667     0.193333333333    -0.177      
C        C      0.733800000000     0.091500000000     0.148400000000    -0.177      
C        C      0.759600000000     0.250200000000     0.151600000000    -0.177      
C        C      0.640440000000     0.290300000000     0.008800000000    -0.177      
C        C      0.685160000000     0.326466666667     0.547466666667    -0.177      
C        C      0.680800000000     0.275133333333     0.534133333333    -0.177      
C        C      0.695600000000     0.260266666667     0.568733333333    -0.177      
C        C      0.715580000000     0.294766666667     0.614333333333    -0.177      
C        C      0.718840000000     0.012500000000     0.626533333333    -0.177      
C        C      0.703720000000     0.028733333333     0.593266666667    -0.177      
C        C      0.655700000000     0.055566666667     0.526666666667    -0.177      
C        C      0.633800000000     0.056900000000     0.481733333333    -0.177      
C        C      0.659600000000     0.234733333333     0.484933333333    -0.177      
C        C      0.740440000000     0.051833333333     0.342133333333    -0.177      
C        C      0.785160000000     0.221000000000     0.547466666667    -0.177      
C        C      0.780800000000     0.259000000000     0.534133333333    -0.177      
C        C      0.795600000000     0.308466666667     0.568733333333    -0.177      
C        C      0.615580000000     0.319566666667     0.614333333333    -0.177      
C        C      0.618840000000     0.280700000000     0.626533333333    -0.177      
C        C      0.603720000000     0.231200000000     0.593266666667    -0.177      
C        C      0.755700000000     0.137766666667     0.526666666667    -0.177      
C        C      0.733800000000     0.091500000000     0.481733333333    -0.177      
C        C      0.759600000000     0.250200000000     0.484933333333    -0.177      
C        C      0.640440000000     0.290300000000     0.342133333333    -0.177      
C        C      0.685160000000     0.326466666667     0.880800000000    -0.177      
C        C      0.680800000000     0.275133333333     0.867466666667    -0.177      
C        C      0.695600000000     0.260266666667     0.902066666667    -0.177      
C        C      0.715580000000     0.294766666667     0.947666666667    -0.177      
C        C      0.718840000000     0.012500000000     0.959866666667    -0.177      
C        C      0.703720000000     0.028733333333     0.926600000000    -0.177      
C        C      0.655700000000     0.055566666667     0.860000000000    -0.177      
C        C      0.633800000000     0.056900000000     0.815066666667    -0.177      
C        C      0.659600000000     0.234733333333     0.818266666667    -0.177      
C        C      0.740440000000     0.051833333333     0.675466666667    -0.177      
C        C      0.785160000000     0.221000000000     0.880800000000    -0.177      
C        C      0.780800000000     0.259000000000     0.867466666667    -0.177      
C        C      0.795600000000     0.308466666667     0.902066666667    -0.177      
C        C      0.615580000000     0.319566666667     0.947666666667    -0.177      
C        C      0.618840000000     0.280700000000     0.959866666667    -0.177      
C        C      0.603720000000     0.231200000000     0.926600000000    -0.177      
C        C      0.755700000000     0.137766666667     0.860000000000    -0.177      
C        C      0.733800000000     0.091500000000     0.815066666667    -0.177      
C        C      0.759600000000     0.250200000000     0.818266666667    -0.177      
C        C      0.640440000000     0.290300000000     0.675466666667    -0.177      
C        C      0.685160000000     0.659800000000     0.214133333333    -0.177      
C        C      0.680800000000     0.608466666667     0.200800000000    -0.177      
C        C      0.695600000000     0.593600000000     0.235400000000    -0.177      
C        C      0.715580000000     0.628100000000     0.281000000000    -0.177      
C        C      0.718840000000     0.345833333333     0.293200000000    -0.177      
C        C      0.703720000000     0.362066666667     0.259933333333    -0.177      
C        C      0.655700000000     0.388900000000     0.193333333333    -0.177      
C        C      0.633800000000     0.390233333333     0.148400000000    -0.177      
C        C      0.659600000000     0.568066666667     0.151600000000    -0.177      
C        C      0.740440000000     0.385166666667     0.008800000000    -0.177      
C        C      0.785160000000     0.554333333333     0.214133333333    -0.177      
C        C      0.780800000000     0.592333333333     0.200800000000    -0.177      
C        C      0.795600000000     0.641800000000     0.235400000000    -0.177      
C        C      0.615580000000     0.652900000000     0.281000000000    -0.177      
C        C      0.618840000000     0.614033333333     0.293200000000    -0.177      
C        C      0.603720000000     0.564533333333     0.259933333333    -0.177      
C        C      0.755700000000     0.471100000000     0.193333333333    -0.177      
C        C      0.733800000000     0.424833333333     0.148400000000    -0.177      
C        C      0.759600000000     0.583533333333     0.151600000000    -0.177      
C        C      0.640440000000     0.623633333333     0.008800000000    -0.177      
C        C      0.685160000000     0.659800000000     0.547466666667    -0.177      
C        C      0.680800000000     0.608466666667     0.534133333333    -0.177      
C        C      0.695600000000     0.593600000000     0.568733333333    -0.177      
C        C      0.715580000000     0.628100000000     0.614333333333    -0.177      
C        C      0.718840000000     0.345833333333     0.626533333333    -0.177      
C        C      0.703720000000     0.362066666667     0.593266666667    -0.177      
C        C      0.655700000000     0.388900000000     0.526666666667    -0.177      
C        C      0.633800000000     0.390233333333     0.481733333333    -0.177      
C        C      0.659600000000     0.568066666667     0.484933333333    -0.177      
C        C      0.740440000000     0.385166666667     0.342133333333    -0.177      
C        C      0.785160000000     0.554333333333     0.547466666667    -0.177      
C        C      0.780800000000     0.592333333333     0.534133333333    -0.177      
C        C      0.795600000000     0.641800000000     0.568733333333    -0.177      
C        C      0.615580000000     0.652900000000     0.614333333333    -0.177      
C        C      0.618840000000     0.614033333333     0.626533333333    -0.177      
C        C      0.603720000000     0.564533333333     0.593266666667    -0.177      
C        C      0.755700000000     0.471100000000     0.526666666667    -0.177      
C        C      0.733800000000     0.424833333333     0.481733333333    -0.177      
C        C      0.759600000000     0.583533333333     0.484933333333    -0.177      
C        C      0.640440000000     0.623633333333     0.342133333333    -0.177      
C        C      0.685160000000     0.659800000000     0.880800000000    -0.177      
C        C      0.680800000000     0.608466666667     0.867466666667    -0.177      
C        C      0.695600000000     0.593600000000     0.902066666667    -0.177      
C        C      0.715580000000     0.628100000000     0.947666666667    -0.177      
C        C      0.718840000000     0.345833333333     0.959866666667    -0.177      
C        C      0.703720000000     0.362066666667     0.926600000000    -0.177      
C        C      0.655700000000     0.388900000000     0.860000000000    -0.177      
C        C      0.633800000000     0.390233333333     0.815066666667    -0.177      
C        C      0.659600000000     0.568066666667     0.818266666667    -0.177      
C        C      0.740440000000     0.385166666667     0.675466666667    -0.177      
C        C      0.785160000000     0.554333333333     0.880800000000    -0.177      
C        C      0.780800000000     0.592333333333     0.867466666667    -0.177      
C        C      0.795600000000     0.641800000000     0.902066666667    -0.177      
C        C      0.615580000000     0.652900000000     0.947666666667    -0.177      
C        C      0.618840000000     0.614033333333     0.959866666667    -0.177      
C        C      0.603720000000     0.564533333333     0.926600000000    -0.177      
C        C      0.755700000000     0.471100000000     0.860000000000    -0.177      
C        C      0.733800000000     0.424833333333     0.815066666667    -0.177      
C        C      0.759600000000     0.583533333333     0.818266666667    -0.177      
C        C      0.640440000000     0.623633333333     0.675466666667    -0.177      
C        C      0.685160000000     0.993133333333     0.214133333333    -0.177      
C        C      0.680800000000     0.941800000000     0.200800000000    -0.177      
C        C      0.695600000000     0.926933333333     0.235400000000    -0.177      
C        C      0.715580000000     0.961433333333     0.281000000000    -0.177      
C        C      0.718840000000     0.679166666667     0.293200000000    -0.177      
C        C      0.703720000000     0.695400000000     0.259933333333    -0.177      
C        C      0.655700000000     0.722233333333     0.193333333333    -0.177      
C        C      0.633800000000     0.723566666667     0.148400000000    -0.177      
C        C      0.659600000000     0.901400000000     0.151600000000    -0.177      
C        C      0.740440000000     0.718500000000     0.008800000000    -0.177      
C        C      0.785160000000     0.887666666667     0.214133333333    -0.177      
C        C      0.780800000000     0.925666666667     0.200800000000    -0.177      
C        C      0.795600000000     0.975133333333     0.235400000000    -0.177      
C        C      0.615580000000     0.986233333333     0.281000000000    -0.177      
C        C      0.618840000000     0.947366666667     0.293200000000    -0.177      
C        C      0.603720000000     0.897866666667     0.259933333333    -0.177      
C        C      0.755700000000     0.804433333333     0.193333333333    -0.177      
C        C      0.733800000000     0.758166666667     0.148400000000    -0.177      
C        C      0.759600000000     0.916866666667     0.151600000000    -0.177      
C        C      0.640440000000     0.956966666667     0.008800000000    -0.177      
C        C      0.685160000000     0.993133333333     0.547466666667    -0.177      
C        C      0.680800000000     0.941800000000     0.534133333333    -0.177      
C        C      0.695600000000     0.926933333333     0.568733333333    -0.177      
C        C      0.715580000000     0.961433333333     0.614333333333    -0.177      
C        C      0.718840000000     0.679166666667     0.626533333333    -0.177      
C        C      0.703720000000     0.695400000000     0.593266666667    -0.177      
C        C      0.655700000000     0.722233333333     0.526666666667    -0.177      
C        C      0.633800000000     0.723566666667     0.481733333333    -0.177      
C        C      0.659600000000     0.901400000000     0.484933333333    -0.177      
C        C      0.740440000000     0.718500000000     0.342133333333    -0.177      
C        C      0.785160000000     0.887666666667     0.547466666667    -0.177      
C        C      0.780800000000     0.925666666667     0.534133333333    -0.177      
C        C      0.795600000000     0.975133333333     0.568733333333    -0.177      
C        C      0.615580000000     0.986233333333     0.614333333333    -0.177      
C        C      0.618840000000     0.947366666667     0.626533333333    -0.177      
C        C      0.603720000000     0.897866666667     0.593266666667    -0.177      
C        C      0.755700000000     0.804433333333     0.526666666667    -0.177      
C        C      0.733800000000     0.758166666667     0.481733333333    -0.177      
C        C      0.759600000000     0.916866666667     0.484933333333    -0.177      
C        C      0.640440000000     0.956966666667     0.342133333333    -0.177      
C        C      0.685160000000     0.993133333333     0.880800000000    -0.177      
C        C      0.680800000000     0.941800000000     0.867466666667    -0.177      
C        C      0.695600000000     0.926933333333     0.902066666667    -0.177      
C        C      0.715580000000     0.961433333333     0.947666666667    -0.177      
C        C      0.718840000000     0.679166666667     0.959866666667    -0.177      
C        C      0.703720000000     0.695400000000     0.926600000000    -0.177      
C        C      0.655700000000     0.722233333333     0.860000000000    -0.177      
C        C      0.633800000000     0.723566666667     0.815066666667    -0.177      
C        C      0.659600000000     0.901400000000     0.818266666667    -0.177      
C        C      0.740440000000     0.718500000000     0.675466666667    -0.177      
C        C      0.785160000000     0.887666666667     0.880800000000    -0.177      
C        C      0.780800000000     0.925666666667     0.867466666667    -0.177      
C        C      0.795600000000     0.975133333333     0.902066666667    -0.177      
C        C      0.615580000000     0.986233333333     0.947666666667    -0.177      
C        C      0.618840000000     0.947366666667     0.959866666667    -0.177      
C        C      0.603720000000     0.897866666667     0.926600000000    -0.177      
C        C      0.755700000000     0.804433333333     0.860000000000    -0.177      
C        C      0.733800000000     0.758166666667     0.815066666667    -0.177      
C        C      0.759600000000     0.916866666667     0.818266666667    -0.177      
C        C      0.640440000000     0.956966666667     0.675466666667    -0.177      
C        C      0.885160000000     0.326466666667     0.214133333333    -0.177      
C        C      0.880800000000     0.275133333333     0.200800000000    -0.177      
C        C      0.895600000000     0.260266666667     0.235400000000    -0.177      
C        C      0.915580000000     0.294766666667     0.281000000000    -0.177      
C        C      0.918840000000     0.012500000000     0.293200000000    -0.177      
C        C      0.903720000000     0.028733333333     0.259933333333    -0.177      
C        C      0.855700000000     0.055566666667     0.193333333333    -0.177      
C        C      0.833800000000     0.056900000000     0.148400000000    -0.177      
C        C      0.859600000000     0.234733333333     0.151600000000    -0.177      
C        C      0.940440000000     0.051833333333     0.008800000000    -0.177      
C        C      0.985160000000     0.221000000000     0.214133333333    -0.177      
C        C      0.980800000000     0.259000000000     0.200800000000    -0.177      
C        C      0.995600000000     0.308466666667     0.235400000000    -0.177      
C        C      0.815580000000     0.319566666667     0.281000000000    -0.177      
C        C      0.818840000000     0.280700000000     0.293200000000    -0.177      
C        C      0.803720000000     0.231200000000     0.259933333333    -0.177      
C        C      0.955700000000     0.137766666667     0.193333333333    -0.177      
C        C      0.933800000000     0.091500000000     0.148400000000    -0.177      
C        C      0.959600000000     0.250200000000     0.151600000000    -0.177      
C        C      0.840440000000     0.290300000000     0.008800000000    -0.177      
C        C      0.885160000000     0.326466666667     0.547466666667    -0.177      
C        C      0.880800000000     0.275133333333     0.534133333333    -0.177      
C        C      0.895600000000     0.260266666667     0.568733333333    -0.177      
C        C      0.915580000000     0.294766666667     0.614333333333    -0.177      
C        C      0.918840000000     0.012500000000     0.626533333333    -0.177      
C        C      0.903720000000     0.028733333333     0.593266666667    -0.177      
C        C      0.855700000000     0.055566666667     0.526666666667    -0.177      
C        C      0.833800000000     0.056900000000     0.481733333333    -0.177      
C        C      0.859600000000     0.234733333333     0.484933333333    -0.177      
C        C      0.940440000000     0.051833333333     0.342133333333    -0.177      
C        C      0.985160000000     0.221000000000     0.547466666667    -0.177      
C        C      0.980800000000     0.259000000000     0.534133333333    -0.177      
C        C      0.995600000000     0.308466666667     0.568733333333    -0.177      
C        C      0.815580000000     0.319566666667     0.614333333333    -0.177      
C        C      0.818840000000     0.280700000000     0.626533333333    -0.177      
C        C      0.803720000000     0.231200000000     0.593266666667    -0.177      
C        C      0.955700000000     0.137766666667     0.526666666667    -0.177      
C        C      0.933800000000     0.091500000000     0.481733333333    -0.177      
C        C      0.959600000000     0.250200000000     0.484933333333    -0.177      
C        C      0.840440000000     0.290300000000     0.342133333333    -0.177      
C        C      0.885160000000     0.326466666667     0.880800000000    -0.177      
C        C      0.880800000000     0.275133333333     0.867466666667    -0.177      
C        C      0.895600000000     0.260266666667     0.902066666667    -0.177      
C        C      0.915580000000     0.294766666667     0.947666666667    -0.177      
C        C      0.918840000000     0.012500000000     0.959866666667    -0.177      
C        C      0.903720000000     0.028733333333     0.926600000000    -0.177      
C        C      0.855700000000     0.055566666667     0.860000000000    -0.177      
C        C      0.833800000000     0.056900000000     0.815066666667    -0.177      
C        C      0.859600000000     0.234733333333     0.818266666667    -0.177      
C        C      0.940440000000     0.051833333333     0.675466666667    -0.177      
C        C      0.985160000000     0.221000000000     0.880800000000    -0.177      
C        C      0.980800000000     0.259000000000     0.867466666667    -0.177      
C        C      0.995600000000     0.308466666667     0.902066666667    -0.177      
C        C      0.815580000000     0.319566666667     0.947666666667    -0.177      
C        C      0.818840000000     0.280700000000     0.959866666667    -0.177      
C        C      0.803720000000     0.231200000000     0.926600000000    -0.177      
C        C      0.955700000000     0.137766666667     0.860000000000    -0.177      
C        C      0.933800000000     0.091500000000     0.815066666667    -0.177      
C        C      0.959600000000     0.250200000000     0.818266666667    -0.177      
C        C      0.840440000000     0.290300000000     0.675466666667    -0.177      
C        C      0.885160000000     0.659800000000     0.214133333333    -0.177      
C        C      0.880800000000     0.608466666667     0.200800000000    -0.177      
C        C      0.895600000000     0.593600000000     0.235400000000    -0.177      
C        C      0.915580000000     0.628100000000     0.281000000000    -0.177      
C        C      0.918840000000     0.345833333333     0.293200000000    -0.177      
C        C      0.903720000000     0.362066666667     0.259933333333    -0.177      
C        C      0.855700000000     0.388900000000     0.193333333333    -0.177      
C        C      0.833800000000     0.390233333333     0.148400000000    -0.177      
C        C      0.859600000000     0.568066666667     0.151600000000    -0.177      
C        C      0.940440000000     0.385166666667     0.008800000000    -0.177      
C        C      0.985160000000     0.554333333333     0.214133333333    -0.177      
C        C      0.980800000000     0.592333333333     0.200800000000    -0.177      
C        C      0.995600000000     0.641800000000     0.235400000000    -0.177      
C        C      0.815580000000     0.652900000000     0.281000000000    -0.177      
C        C      0.818840000000     0.614033333333     0.293200000000    -0.177      
C        C      0.803720000000     0.564533333333     0.259933333333    -0.177      
C        C      0.955700000000     0.471100000000     0.193333333333    -0.177      
C        C      0.933800000000     0.424833333333     0.148400000000    -0.177      
C        C      0.959600000000     0.583533333333     0.151600000000    -0.177      
C        C      0.840440000000     0.623633333333     0.008800000000    -0.177      
C        C      0.885160000000     0.659800000000     0.547466666667    -0.177      
C        C      0.880800000000     0.608466666667     0.534133333333    -0.177      
C        C      0.895600000000     0.593600000000     0.568733333333    -0.177      
C        C      0.915580000000     0.628100000000     0.614333333333    -0.177      
C        C      0.918840000000     0.345833333333     0.626533333333    -0.177      
C        C      0.903720000000     0.362066666667     0.593266666667    -0.177      
C        C      0.855700000000     0.388900000000     0.526666666667    -0.177      
C        C      0.833800000000     0.390233333333     0.481733333333    -0.177      
C        C      0.859600000000     0.568066666667     0.484933333333    -0.177      
C        C      0.940440000000     0.385166666667     0.342133333333    -0.177      
C        C      0.985160000000     0.554333333333     0.547466666667    -0.177      
C        C      0.980800000000     0.592333333333     0.534133333333    -0.177      
C        C      0.995600000000     0.641800000000     0.568733333333    -0.177      
C        C      0.815580000000     0.652900000000     0.614333333333    -0.177      
C        C      0.818840000000     0.614033333333     0.626533333333    -0.177      
C        C      0.803720000000     0.564533333333     0.593266666667    -0.177      
C        C      0.955700000000     0.471100000000     0.526666666667    -0.177      
C        C      0.933800000000     0.424833333333     0.481733333333    -0.177      
C        C      0.959600000000     0.583533333333     0.484933333333    -0.177      
C        C      0.840440000000     0.623633333333     0.342133333333    -0.177      
C        C      0.885160000000     0.659800000000     0.880800000000    -0.177      
C        C      0.880800000000     0.608466666667     0.867466666667    -0.177      
C        C      0.895600000000     0.593600000000     0.902066666667    -0.177      
C        C      0.915580000000     0.628100000000     0.947666666667    -0.177      
C        C      0.918840000000     0.345833333333     0.959866666667    -0.177      
C        C      0.903720000000     0.362066666667     0.926600000000    -0.177      
C        C      0.855700000000     0.388900000000     0.860000000000    -0.177      
C        C      0.833800000000     0.390233333333     0.815066666667    -0.177      
C        C      0.859600000000     0.568066666667     0.818266666667    -0.177      
C        C      0.940440000000     0.385166666667     0.675466666667    -0.177      
C        C      0.985160000000     0.554333333333     0.880800000000    -0.177      
C        C      0.980800000000     0.592333333333     0.867466666667    -0.177      
C        C      0.995600000000     0.641800000000     0.902066666667    -0.177      
C        C      0.815580000000     0.652900000000     0.947666666667    -0.177      
C        C      0.818840000000     0.614033333333     0.959866666667    -0.177      
C        C      0.803720000000     0.564533333333     0.926600000000    -0.177      
C        C      0.955700000000     0.471100000000     0.860000000000    -0.177      
C        C      0.933800000000     0.424833333333     0.815066666667    -0.177      
C        C      0.959600000000     0.583533333333     0.818266666667    -0.177      
C        C      0.840440000000     0.623633333333     0.675466666667    -0.177      
C        C      0.885160000000     0.993133333333     0.214133333333    -0.177      
C        C      0.880800000000     0.941800000000     0.200800000000    -0.177      
C        C      0.895600000000     0.926933333333     0.235400000000    -0.177      
C        C      0.915580000000     0.961433333333     0.281000000000    -0.177      
C        C      0.918840000000     0.679166666667     0.293200000000    -0.177      
C        C      0.903720000000     0.695400000000     0.259933333333    -0.177      
C        C      0.855700000000     0.722233333333     0.193333333333    -0.177      
C        C      0.833800000000     0.723566666667     0.148400000000    -0.177      
C        C      0.859600000000     0.901400000000     0.151600000000    -0.177      
C        C      0.940440000000     0.718500000000     0.008800000000    -0.177      
C        C      0.985160000000     0.887666666667     0.214133333333    -0.177      
C        C      0.980800000000     0.925666666667     0.200800000000    -0.177      
C        C      0.995600000000     0.975133333333     0.235400000000    -0.177      
C        C      0.815580000000     0.986233333333     0.281000000000    -0.177      
C        C      0.818840000000     0.947366666667     0.293200000000    -0.177      
C        C      0.803720000000     0.897866666667     0.259933333333    -0.177      
C        C      0.955700000000     0.804433333333     0.193333333333    -0.177      
C        C      0.933800000000     0.758166666667     0.148400000000    -0.177      
C        C      0.959600000000     0.916866666667     0.151600000000    -0.177      
C        C      0.840440000000     0.956966666667     0.008800000000    -0.177      
C        C      0.885160000000     0.993133333333     0.547466666667    -0.177      
C        C      0.880800000000     0.941800000000     0.534133333333    -0.177      
C        C      0.895600000000     0.926933333333     0.568733333333    -0.177      
C        C      0.915580000000     0.961433333333     0.614333333333    -0.177      
C        C      0.918840000000     0.679166666667     0.626533333333    -0.177      
C        C      0.903720000000     0.695400000000     0.593266666667    -0.177      
C        C      0.855700000000     0.722233333333     0.526666666667    -0.177      
C        C      0.833800000000     0.723566666667     0.481733333333    -0.177      
C        C      0.859600000000     0.901400000000     0.484933333333    -0.177      
C        C      0.940440000000     0.718500000000     0.342133333333    -0.177      
C        C      0.985160000000     0.887666666667     0.547466666667    -0.177      
C        C      0.980800000000     0.925666666667     0.534133333333    -0.177      
C        C      0.995600000000     0.975133333333     0.568733333333    -0.177      
C        C      0.815580000000     0.986233333333     0.614333333333    -0.177      
C        C      0.818840000000     0.947366666667     0.626533333333    -0.177      
C        C      0.803720000000     0.897866666667     0.593266666667    -0.177      
C        C      0.955700000000     0.804433333333     0.526666666667    -0.177      
C        C      0.933800000000     0.758166666667     0.481733333333    -0.177      
C        C      0.959600000000     0.916866666667     0.484933333333    -0.177      
C        C      0.840440000000     0.956966666667     0.342133333333    -0.177      
C        C      0.885160000000     0.993133333333     0.880800000000    -0.177      
C        C      0.880800000000     0.941800000000     0.867466666667    -0.177      
C        C      0.895600000000     0.926933333333     0.902066666667    -0.177      
C        C      0.915580000000     0.961433333333     0.947666666667    -0.177      
C        C      0.918840000000     0.679166666667     0.959866666667    -0.177      
C        C      0.903720000000     0.695400000000     0.926600000000    -0.177      
C        C      0.855700000000     0.722233333333     0.860000000000    -0.177      
C        C      0.833800000000     0.723566666667     0.815066666667    -0.177      
C        C      0.859600000000     0.901400000000     0.818266666667    -0.177      
C        C      0.940440000000     0.718500000000     0.675466666667    -0.177      
C        C      0.985160000000     0.887666666667     0.880800000000    -0.177      
C        C      0.980800000000     0.925666666667     0.867466666667    -0.177      
C        C      0.995600000000     0.975133333333     0.902066666667    -0.177      
C        C      0.815580000000     0.986233333333     0.947666666667    -0.177      
C        C      0.818840000000     0.947366666667     0.959866666667    -0.177      
C        C      0.803720000000     0.897866666667     0.926600000000    -0.177      
C        C      0.955700000000     0.804433333333     0.860000000000    -0.177      
C        C      0.933800000000     0.758166666667     0.815066666667    -0.177      
C        C      0.959600000000     0.916866666667     0.818266666667    -0.177      
C        C      0.840440000000     0.956966666667     0.675466666667    -0.177      
Nd       Nd     0.088472000000     0.302833333333     0.098736666667    -0.043      
Nd       Nd     0.188472000000     0.129236666667     0.098736666667    -0.043      
Nd       Nd     0.088472000000     0.302833333333     0.432070000000    -0.043      
Nd       Nd     0.188472000000     0.129236666667     0.432070000000    -0.043      
Nd       Nd     0.088472000000     0.302833333333     0.765403333333    -0.043      
Nd       Nd     0.188472000000     0.129236666667     0.765403333333    -0.043      
Nd       Nd     0.088472000000     0.636166666667     0.098736666667    -0.043      
Nd       Nd     0.188472000000     0.462570000000     0.098736666667    -0.043      
Nd       Nd     0.088472000000     0.636166666667     0.432070000000    -0.043      
Nd       Nd     0.188472000000     0.462570000000     0.432070000000    -0.043      
Nd       Nd     0.088472000000     0.636166666667     0.765403333333    -0.043      
Nd       Nd     0.188472000000     0.462570000000     0.765403333333    -0.043      
Nd       Nd     0.088472000000     0.969500000000     0.098736666667    -0.043      
Nd       Nd     0.188472000000     0.795903333333     0.098736666667    -0.043      
Nd       Nd     0.088472000000     0.969500000000     0.432070000000    -0.043      
Nd       Nd     0.188472000000     0.795903333333     0.432070000000    -0.043      
Nd       Nd     0.088472000000     0.969500000000     0.765403333333    -0.043      
Nd       Nd     0.188472000000     0.795903333333     0.765403333333    -0.043      
Nd       Nd     0.288472000000     0.302833333333     0.098736666667    -0.043      
Nd       Nd     0.388472000000     0.129236666667     0.098736666667    -0.043      
Nd       Nd     0.288472000000     0.302833333333     0.432070000000    -0.043      
Nd       Nd     0.388472000000     0.129236666667     0.432070000000    -0.043      
Nd       Nd     0.288472000000     0.302833333333     0.765403333333    -0.043      
Nd       Nd     0.388472000000     0.129236666667     0.765403333333    -0.043      
Nd       Nd     0.288472000000     0.636166666667     0.098736666667    -0.043      
Nd       Nd     0.388472000000     0.462570000000     0.098736666667    -0.043      
Nd       Nd     0.288472000000     0.636166666667     0.432070000000    -0.043      
Nd       Nd     0.388472000000     0.462570000000     0.432070000000    -0.043      
Nd       Nd     0.288472000000     0.636166666667     0.765403333333    -0.043      
Nd       Nd     0.388472000000     0.462570000000     0.765403333333    -0.043      
Nd       Nd     0.288472000000     0.969500000000     0.098736666667    -0.043      
Nd       Nd     0.388472000000     0.795903333333     0.098736666667    -0.043      
Nd       Nd     0.288472000000     0.969500000000     0.432070000000    -0.043      
Nd       Nd     0.388472000000     0.795903333333     0.432070000000    -0.043      
Nd       Nd     0.288472000000     0.969500000000     0.765403333333    -0.043      
Nd       Nd     0.388472000000     0.795903333333     0.765403333333    -0.043      
Nd       Nd     0.488472000000     0.302833333333     0.098736666667    -0.043      
Nd       Nd     0.588472000000     0.129236666667     0.098736666667    -0.043      
Nd       Nd     0.488472000000     0.302833333333     0.432070000000    -0.043      
Nd       Nd     0.588472000000     0.129236666667     0.432070000000    -0.043      
Nd       Nd     0.488472000000     0.302833333333     0.765403333333    -0.043      
Nd       Nd     0.588472000000     0.129236666667     0.765403333333    -0.043      
Nd       Nd     0.488472000000     0.636166666667     0.098736666667    -0.043      
Nd       Nd     0.588472000000     0.462570000000     0.098736666667    -0.043      
Nd       Nd     0.488472000000     0.636166666667     0.432070000000    -0.043      
Nd       Nd     0.588472000000     0.462570000000     0.432070000000    -0.043      
Nd       Nd     0.488472000000     0.636166666667     0.765403333333    -0.043      
Nd       Nd     0.588472000000     0.462570000000     0.765403333333    -0.043      
Nd       Nd     0.488472000000     0.969500000000     0.098736666667    -0.043      
Nd       Nd     0.588472000000     0.795903333333     0.098736666667    -0.043      
Nd       Nd     0.488472000000     0.969500000000     0.432070000000    -0.043      
Nd       Nd     0.588472000000     0.795903333333     0.432070000000    -0.043      
Nd       Nd     0.488472000000     0.969500000000     0.765403333333    -0.043      
Nd       Nd     0.588472000000     0.795903333333     0.765403333333    -0.043      
Nd       Nd     0.688472000000     0.302833333333     0.098736666667    -0.043      
Nd       Nd     0.788472000000     0.129236666667     0.098736666667    -0.043      
Nd       Nd     0.688472000000     0.302833333333     0.432070000000    -0.043      
Nd       Nd     0.788472000000     0.129236666667     0.432070000000    -0.043      
Nd       Nd     0.688472000000     0.302833333333     0.765403333333    -0.043      
Nd       Nd     0.788472000000     0.129236666667     0.765403333333    -0.043      
Nd       Nd     0.688472000000     0.636166666667     0.098736666667    -0.043      
Nd       Nd     0.788472000000     0.462570000000     0.098736666667    -0.043      
Nd       Nd     0.688472000000     0.636166666667     0.432070000000    -0.043      
Nd       Nd     0.788472000000     0.462570000000     0.432070000000    -0.043      
Nd       Nd     0.688472000000     0.636166666667     0.765403333333    -0.043      
Nd       Nd     0.788472000000     0.462570000000     0.765403333333    -0.043      
Nd       Nd     0.688472000000     0.969500000000     0.098736666667    -0.043      
Nd       Nd     0.788472000000     0.795903333333     0.098736666667    -0.043      
Nd       Nd     0.688472000000     0.969500000000     0.432070000000    -0.043      
Nd       Nd     0.788472000000     0.795903333333     0.432070000000    -0.043      
Nd       Nd     0.688472000000     0.969500000000     0.765403333333    -0.043      
Nd       Nd     0.788472000000     0.795903333333     0.765403333333    -0.043      
Nd       Nd     0.888472000000     0.302833333333     0.098736666667    -0.043      
Nd       Nd     0.988472000000     0.129236666667     0.098736666667    -0.043      
Nd       Nd     0.888472000000     0.302833333333     0.432070000000    -0.043      
Nd       Nd     0.988472000000     0.129236666667     0.432070000000    -0.043      
Nd       Nd     0.888472000000     0.302833333333     0.765403333333    -0.043      
Nd       Nd     0.988472000000     0.129236666667     0.765403333333    -0.043      
Nd       Nd     0.888472000000     0.636166666667     0.098736666667    -0.043      
Nd       Nd     0.988472000000     0.462570000000     0.098736666667    -0.043      
Nd       Nd     0.888472000000     0.636166666667     0.432070000000    -0.043      
Nd       Nd     0.988472000000     0.462570000000     0.432070000000    -0.043      
Nd       Nd     0.888472000000     0.636166666667     0.765403333333    -0.043      
Nd       Nd     0.988472000000     0.462570000000     0.765403333333    -0.043      
Nd       Nd     0.888472000000     0.969500000000     0.098736666667    -0.043      
Nd       Nd     0.988472000000     0.795903333333     0.098736666667    -0.043      
Nd       Nd     0.888472000000     0.969500000000     0.432070000000    -0.043      
Nd       Nd     0.988472000000     0.795903333333     0.432070000000    -0.043      
Nd       Nd     0.888472000000     0.969500000000     0.765403333333    -0.043      
Nd       Nd     0.988472000000     0.795903333333     0.765403333333    -0.043      
H        H      0.091940000000     0.226300000000     0.227600000000    -0.229      
H        H      0.126640000000     0.284066666667     0.303133333333    -0.229      
H        H      0.106000000000     0.062900000000     0.268266666667    -0.229      
H        H      0.037520000000     0.059666666667     0.212466666667    -0.229      
H        H      0.078060000000     0.082466666667     0.211200000000    -0.229      
H        H      0.191940000000     0.001300000000     0.227600000000    -0.229      
H        H      0.026640000000     0.019066666667     0.303133333333    -0.229      
H        H      0.006000000000     0.205366666667     0.268266666667    -0.229      
H        H      0.137520000000     0.152800000000     0.212466666667    -0.229      
H        H      0.178060000000     0.128733333333     0.211200000000    -0.229      
H        H      0.091940000000     0.226300000000     0.560933333333    -0.229      
H        H      0.126640000000     0.284066666667     0.636466666667    -0.229      
H        H      0.106000000000     0.062900000000     0.601600000000    -0.229      
H        H      0.037520000000     0.059666666667     0.545800000000    -0.229      
H        H      0.078060000000     0.082466666667     0.544533333333    -0.229      
H        H      0.191940000000     0.001300000000     0.560933333333    -0.229      
H        H      0.026640000000     0.019066666667     0.636466666667    -0.229      
H        H      0.006000000000     0.205366666667     0.601600000000    -0.229      
H        H      0.137520000000     0.152800000000     0.545800000000    -0.229      
H        H      0.178060000000     0.128733333333     0.544533333333    -0.229      
H        H      0.091940000000     0.226300000000     0.894266666667    -0.229      
H        H      0.126640000000     0.284066666667     0.969800000000    -0.229      
H        H      0.106000000000     0.062900000000     0.934933333333    -0.229      
H        H      0.037520000000     0.059666666667     0.879133333333    -0.229      
H        H      0.078060000000     0.082466666667     0.877866666667    -0.229      
H        H      0.191940000000     0.001300000000     0.894266666667    -0.229      
H        H      0.026640000000     0.019066666667     0.969800000000    -0.229      
H        H      0.006000000000     0.205366666667     0.934933333333    -0.229      
H        H      0.137520000000     0.152800000000     0.879133333333    -0.229      
H        H      0.178060000000     0.128733333333     0.877866666667    -0.229      
H        H      0.091940000000     0.559633333333     0.227600000000    -0.229      
H        H      0.126640000000     0.617400000000     0.303133333333    -0.229      
H        H      0.106000000000     0.396233333333     0.268266666667    -0.229      
H        H      0.037520000000     0.393000000000     0.212466666667    -0.229      
H        H      0.078060000000     0.415800000000     0.211200000000    -0.229      
H        H      0.191940000000     0.334633333333     0.227600000000    -0.229      
H        H      0.026640000000     0.352400000000     0.303133333333    -0.229      
H        H      0.006000000000     0.538700000000     0.268266666667    -0.229      
H        H      0.137520000000     0.486133333333     0.212466666667    -0.229      
H        H      0.178060000000     0.462066666667     0.211200000000    -0.229      
H        H      0.091940000000     0.559633333333     0.560933333333    -0.229      
H        H      0.126640000000     0.617400000000     0.636466666667    -0.229      
H        H      0.106000000000     0.396233333333     0.601600000000    -0.229      
H        H      0.037520000000     0.393000000000     0.545800000000    -0.229      
H        H      0.078060000000     0.415800000000     0.544533333333    -0.229      
H        H      0.191940000000     0.334633333333     0.560933333333    -0.229      
H        H      0.026640000000     0.352400000000     0.636466666667    -0.229      
H        H      0.006000000000     0.538700000000     0.601600000000    -0.229      
H        H      0.137520000000     0.486133333333     0.545800000000    -0.229      
H        H      0.178060000000     0.462066666667     0.544533333333    -0.229      
H        H      0.091940000000     0.559633333333     0.894266666667    -0.229      
H        H      0.126640000000     0.617400000000     0.969800000000    -0.229      
H        H      0.106000000000     0.396233333333     0.934933333333    -0.229      
H        H      0.037520000000     0.393000000000     0.879133333333    -0.229      
H        H      0.078060000000     0.415800000000     0.877866666667    -0.229      
H        H      0.191940000000     0.334633333333     0.894266666667    -0.229      
H        H      0.026640000000     0.352400000000     0.969800000000    -0.229      
H        H      0.006000000000     0.538700000000     0.934933333333    -0.229      
H        H      0.137520000000     0.486133333333     0.879133333333    -0.229      
H        H      0.178060000000     0.462066666667     0.877866666667    -0.229      
H        H      0.091940000000     0.892966666667     0.227600000000    -0.229      
H        H      0.126640000000     0.950733333333     0.303133333333    -0.229      
H        H      0.106000000000     0.729566666667     0.268266666667    -0.229      
H        H      0.037520000000     0.726333333333     0.212466666667    -0.229      
H        H      0.078060000000     0.749133333333     0.211200000000    -0.229      
H        H      0.191940000000     0.667966666667     0.227600000000    -0.229      
H        H      0.026640000000     0.685733333333     0.303133333333    -0.229      
H        H      0.006000000000     0.872033333333     0.268266666667    -0.229      
H        H      0.137520000000     0.819466666667     0.212466666667    -0.229      
H        H      0.178060000000     0.795400000000     0.211200000000    -0.229      
H        H      0.091940000000     0.892966666667     0.560933333333    -0.229      
H        H      0.126640000000     0.950733333333     0.636466666667    -0.229      
H        H      0.106000000000     0.729566666667     0.601600000000    -0.229      
H        H      0.037520000000     0.726333333333     0.545800000000    -0.229      
H        H      0.078060000000     0.749133333333     0.544533333333    -0.229      
H        H      0.191940000000     0.667966666667     0.560933333333    -0.229      
H        H      0.026640000000     0.685733333333     0.636466666667    -0.229      
H        H      0.006000000000     0.872033333333     0.601600000000    -0.229      
H        H      0.137520000000     0.819466666667     0.545800000000    -0.229      
H        H      0.178060000000     0.795400000000     0.544533333333    -0.229      
H        H      0.091940000000     0.892966666667     0.894266666667    -0.229      
H        H      0.126640000000     0.950733333333     0.969800000000    -0.229      
H        H      0.106000000000     0.729566666667     0.934933333333    -0.229      
H        H      0.037520000000     0.726333333333     0.879133333333    -0.229      
H        H      0.078060000000     0.749133333333     0.877866666667    -0.229      
H        H      0.191940000000     0.667966666667     0.894266666667    -0.229      
H        H      0.026640000000     0.685733333333     0.969800000000    -0.229      
H        H      0.006000000000     0.872033333333     0.934933333333    -0.229      
H        H      0.137520000000     0.819466666667     0.879133333333    -0.229      
H        H      0.178060000000     0.795400000000     0.877866666667    -0.229      
H        H      0.291940000000     0.226300000000     0.227600000000    -0.229      
H        H      0.326640000000     0.284066666667     0.303133333333    -0.229      
H        H      0.306000000000     0.062900000000     0.268266666667    -0.229      
H        H      0.237520000000     0.059666666667     0.212466666667    -0.229      
H        H      0.278060000000     0.082466666667     0.211200000000    -0.229      
H        H      0.391940000000     0.001300000000     0.227600000000    -0.229      
H        H      0.226640000000     0.019066666667     0.303133333333    -0.229      
H        H      0.206000000000     0.205366666667     0.268266666667    -0.229      
H        H      0.337520000000     0.152800000000     0.212466666667    -0.229      
H        H      0.378060000000     0.128733333333     0.211200000000    -0.229      
H        H      0.291940000000     0.226300000000     0.560933333333    -0.229      
H        H      0.326640000000     0.284066666667     0.636466666667    -0.229      
H        H      0.306000000000     0.062900000000     0.601600000000    -0.229      
H        H      0.237520000000     0.059666666667     0.545800000000    -0.229      
H        H      0.278060000000     0.082466666667     0.544533333333    -0.229      
H        H      0.391940000000     0.001300000000     0.560933333333    -0.229      
H        H      0.226640000000     0.019066666667     0.636466666667    -0.229      
H        H      0.206000000000     0.205366666667     0.601600000000    -0.229      
H        H      0.337520000000     0.152800000000     0.545800000000    -0.229      
H        H      0.378060000000     0.128733333333     0.544533333333    -0.229      
H        H      0.291940000000     0.226300000000     0.894266666667    -0.229      
H        H      0.326640000000     0.284066666667     0.969800000000    -0.229      
H        H      0.306000000000     0.062900000000     0.934933333333    -0.229      
H        H      0.237520000000     0.059666666667     0.879133333333    -0.229      
H        H      0.278060000000     0.082466666667     0.877866666667    -0.229      
H        H      0.391940000000     0.001300000000     0.894266666667    -0.229      
H        H      0.226640000000     0.019066666667     0.969800000000    -0.229      
H        H      0.206000000000     0.205366666667     0.934933333333    -0.229      
H        H      0.337520000000     0.152800000000     0.879133333333    -0.229      
H        H      0.378060000000     0.128733333333     0.877866666667    -0.229      
H        H      0.291940000000     0.559633333333     0.227600000000    -0.229      
H        H      0.326640000000     0.617400000000     0.303133333333    -0.229      
H        H      0.306000000000     0.396233333333     0.268266666667    -0.229      
H        H      0.237520000000     0.393000000000     0.212466666667    -0.229      
H        H      0.278060000000     0.415800000000     0.211200000000    -0.229      
H        H      0.391940000000     0.334633333333     0.227600000000    -0.229      
H        H      0.226640000000     0.352400000000     0.303133333333    -0.229      
H        H      0.206000000000     0.538700000000     0.268266666667    -0.229      
H        H      0.337520000000     0.486133333333     0.212466666667    -0.229      
H        H      0.378060000000     0.462066666667     0.211200000000    -0.229      
H        H      0.291940000000     0.559633333333     0.560933333333    -0.229      
H        H      0.326640000000     0.617400000000     0.636466666667    -0.229      
H        H      0.306000000000     0.396233333333     0.601600000000    -0.229      
H        H      0.237520000000     0.393000000000     0.545800000000    -0.229      
H        H      0.278060000000     0.415800000000     0.544533333333    -0.229      
H        H      0.391940000000     0.334633333333     0.560933333333    -0.229      
H        H      0.226640000000     0.352400000000     0.636466666667    -0.229      
H        H      0.206000000000     0.538700000000     0.601600000000    -0.229      
H        H      0.337520000000     0.486133333333     0.545800000000    -0.229      
H        H      0.378060000000     0.462066666667     0.544533333333    -0.229      
H        H      0.291940000000     0.559633333333     0.894266666667    -0.229      
H        H      0.326640000000     0.617400000000     0.969800000000    -0.229      
H        H      0.306000000000     0.396233333333     0.934933333333    -0.229      
H        H      0.237520000000     0.393000000000     0.879133333333    -0.229      
H        H      0.278060000000     0.415800000000     0.877866666667    -0.229      
H        H      0.391940000000     0.334633333333     0.894266666667    -0.229      
H        H      0.226640000000     0.352400000000     0.969800000000    -0.229      
H        H      0.206000000000     0.538700000000     0.934933333333    -0.229      
H        H      0.337520000000     0.486133333333     0.879133333333    -0.229      
H        H      0.378060000000     0.462066666667     0.877866666667    -0.229      
H        H      0.291940000000     0.892966666667     0.227600000000    -0.229      
H        H      0.326640000000     0.950733333333     0.303133333333    -0.229      
H        H      0.306000000000     0.729566666667     0.268266666667    -0.229      
H        H      0.237520000000     0.726333333333     0.212466666667    -0.229      
H        H      0.278060000000     0.749133333333     0.211200000000    -0.229      
H        H      0.391940000000     0.667966666667     0.227600000000    -0.229      
H        H      0.226640000000     0.685733333333     0.303133333333    -0.229      
H        H      0.206000000000     0.872033333333     0.268266666667    -0.229      
H        H      0.337520000000     0.819466666667     0.212466666667    -0.229      
H        H      0.378060000000     0.795400000000     0.211200000000    -0.229      
H        H      0.291940000000     0.892966666667     0.560933333333    -0.229      
H        H      0.326640000000     0.950733333333     0.636466666667    -0.229      
H        H      0.306000000000     0.729566666667     0.601600000000    -0.229      
H        H      0.237520000000     0.726333333333     0.545800000000    -0.229      
H        H      0.278060000000     0.749133333333     0.544533333333    -0.229      
H        H      0.391940000000     0.667966666667     0.560933333333    -0.229      
H        H      0.226640000000     0.685733333333     0.636466666667    -0.229      
H        H      0.206000000000     0.872033333333     0.601600000000    -0.229      
H        H      0.337520000000     0.819466666667     0.545800000000    -0.229      
H        H      0.378060000000     0.795400000000     0.544533333333    -0.229      
H        H      0.291940000000     0.892966666667     0.894266666667    -0.229      
H        H      0.326640000000     0.950733333333     0.969800000000    -0.229      
H        H      0.306000000000     0.729566666667     0.934933333333    -0.229      
H        H      0.237520000000     0.726333333333     0.879133333333    -0.229      
H        H      0.278060000000     0.749133333333     0.877866666667    -0.229      
H        H      0.391940000000     0.667966666667     0.894266666667    -0.229      
H        H      0.226640000000     0.685733333333     0.969800000000    -0.229      
H        H      0.206000000000     0.872033333333     0.934933333333    -0.229      
H        H      0.337520000000     0.819466666667     0.879133333333    -0.229      
H        H      0.378060000000     0.795400000000     0.877866666667    -0.229      
H        H      0.491940000000     0.226300000000     0.227600000000    -0.229      
H        H      0.526640000000     0.284066666667     0.303133333333    -0.229      
H        H      0.506000000000     0.062900000000     0.268266666667    -0.229      
H        H      0.437520000000     0.059666666667     0.212466666667    -0.229      
H        H      0.478060000000     0.082466666667     0.211200000000    -0.229      
H        H      0.591940000000     0.001300000000     0.227600000000    -0.229      
H        H      0.426640000000     0.019066666667     0.303133333333    -0.229      
H        H      0.406000000000     0.205366666667     0.268266666667    -0.229      
H        H      0.537520000000     0.152800000000     0.212466666667    -0.229      
H        H      0.578060000000     0.128733333333     0.211200000000    -0.229      
H        H      0.491940000000     0.226300000000     0.560933333333    -0.229      
H        H      0.526640000000     0.284066666667     0.636466666667    -0.229      
H        H      0.506000000000     0.062900000000     0.601600000000    -0.229      
H        H      0.437520000000     0.059666666667     0.545800000000    -0.229      
H        H      0.478060000000     0.082466666667     0.544533333333    -0.229      
H        H      0.591940000000     0.001300000000     0.560933333333    -0.229      
H        H      0.426640000000     0.019066666667     0.636466666667    -0.229      
H        H      0.406000000000     0.205366666667     0.601600000000    -0.229      
H        H      0.537520000000     0.152800000000     0.545800000000    -0.229      
H        H      0.578060000000     0.128733333333     0.544533333333    -0.229      
H        H      0.491940000000     0.226300000000     0.894266666667    -0.229      
H        H      0.526640000000     0.284066666667     0.969800000000    -0.229      
H        H      0.506000000000     0.062900000000     0.934933333333    -0.229      
H        H      0.437520000000     0.059666666667     0.879133333333    -0.229      
H        H      0.478060000000     0.082466666667     0.877866666667    -0.229      
H        H      0.591940000000     0.001300000000     0.894266666667    -0.229      
H        H      0.426640000000     0.019066666667     0.969800000000    -0.229      
H        H      0.406000000000     0.205366666667     0.934933333333    -0.229      
H        H      0.537520000000     0.152800000000     0.879133333333    -0.229      
H        H      0.578060000000     0.128733333333     0.877866666667    -0.229      
H        H      0.491940000000     0.559633333333     0.227600000000    -0.229      
H        H      0.526640000000     0.617400000000     0.303133333333    -0.229      
H        H      0.506000000000     0.396233333333     0.268266666667    -0.229      
H        H      0.437520000000     0.393000000000     0.212466666667    -0.229      
H        H      0.478060000000     0.415800000000     0.211200000000    -0.229      
H        H      0.591940000000     0.334633333333     0.227600000000    -0.229      
H        H      0.426640000000     0.352400000000     0.303133333333    -0.229      
H        H      0.406000000000     0.538700000000     0.268266666667    -0.229      
H        H      0.537520000000     0.486133333333     0.212466666667    -0.229      
H        H      0.578060000000     0.462066666667     0.211200000000    -0.229      
H        H      0.491940000000     0.559633333333     0.560933333333    -0.229      
H        H      0.526640000000     0.617400000000     0.636466666667    -0.229      
H        H      0.506000000000     0.396233333333     0.601600000000    -0.229      
H        H      0.437520000000     0.393000000000     0.545800000000    -0.229      
H        H      0.478060000000     0.415800000000     0.544533333333    -0.229      
H        H      0.591940000000     0.334633333333     0.560933333333    -0.229      
H        H      0.426640000000     0.352400000000     0.636466666667    -0.229      
H        H      0.406000000000     0.538700000000     0.601600000000    -0.229      
H        H      0.537520000000     0.486133333333     0.545800000000    -0.229      
H        H      0.578060000000     0.462066666667     0.544533333333    -0.229      
H        H      0.491940000000     0.559633333333     0.894266666667    -0.229      
H        H      0.526640000000     0.617400000000     0.969800000000    -0.229      
H        H      0.506000000000     0.396233333333     0.934933333333    -0.229      
H        H      0.437520000000     0.393000000000     0.879133333333    -0.229      
H        H      0.478060000000     0.415800000000     0.877866666667    -0.229      
H        H      0.591940000000     0.334633333333     0.894266666667    -0.229      
H        H      0.426640000000     0.352400000000     0.969800000000    -0.229      
H        H      0.406000000000     0.538700000000     0.934933333333    -0.229      
H        H      0.537520000000     0.486133333333     0.879133333333    -0.229      
H        H      0.578060000000     0.462066666667     0.877866666667    -0.229      
H        H      0.491940000000     0.892966666667     0.227600000000    -0.229      
H        H      0.526640000000     0.950733333333     0.303133333333    -0.229      
H        H      0.506000000000     0.729566666667     0.268266666667    -0.229      
H        H      0.437520000000     0.726333333333     0.212466666667    -0.229      
H        H      0.478060000000     0.749133333333     0.211200000000    -0.229      
H        H      0.591940000000     0.667966666667     0.227600000000    -0.229      
H        H      0.426640000000     0.685733333333     0.303133333333    -0.229      
H        H      0.406000000000     0.872033333333     0.268266666667    -0.229      
H        H      0.537520000000     0.819466666667     0.212466666667    -0.229      
H        H      0.578060000000     0.795400000000     0.211200000000    -0.229      
H        H      0.491940000000     0.892966666667     0.560933333333    -0.229      
H        H      0.526640000000     0.950733333333     0.636466666667    -0.229      
H        H      0.506000000000     0.729566666667     0.601600000000    -0.229      
H        H      0.437520000000     0.726333333333     0.545800000000    -0.229      
H        H      0.478060000000     0.749133333333     0.544533333333    -0.229      
H        H      0.591940000000     0.667966666667     0.560933333333    -0.229      
H        H      0.426640000000     0.685733333333     0.636466666667    -0.229      
H        H      0.406000000000     0.872033333333     0.601600000000    -0.229      
H        H      0.537520000000     0.819466666667     0.545800000000    -0.229      
H        H      0.578060000000     0.795400000000     0.544533333333    -0.229      
H        H      0.491940000000     0.892966666667     0.894266666667    -0.229      
H        H      0.526640000000     0.950733333333     0.969800000000    -0.229      
H        H      0.506000000000     0.729566666667     0.934933333333    -0.229      
H        H      0.437520000000     0.726333333333     0.879133333333    -0.229      
H        H      0.478060000000     0.749133333333     0.877866666667    -0.229      
H        H      0.591940000000     0.667966666667     0.894266666667    -0.229      
H        H      0.426640000000     0.685733333333     0.969800000000    -0.229      
H        H      0.406000000000     0.872033333333     0.934933333333    -0.229      
H        H      0.537520000000     0.819466666667     0.879133333333    -0.229      
H        H      0.578060000000     0.795400000000     0.877866666667    -0.229      
H        H      0.691940000000     0.226300000000     0.227600000000    -0.229      
H        H      0.726640000000     0.284066666667     0.303133333333    -0.229      
H        H      0.706000000000     0.062900000000     0.268266666667    -0.229      
H        H      0.637520000000     0.059666666667     0.212466666667    -0.229      
H        H      0.678060000000     0.082466666667     0.211200000000    -0.229      
H        H      0.791940000000     0.001300000000     0.227600000000    -0.229      
H        H      0.626640000000     0.019066666667     0.303133333333    -0.229      
H        H      0.606000000000     0.205366666667     0.268266666667    -0.229      
H        H      0.737520000000     0.152800000000     0.212466666667    -0.229      
H        H      0.778060000000     0.128733333333     0.211200000000    -0.229      
H        H      0.691940000000     0.226300000000     0.560933333333    -0.229      
H        H      0.726640000000     0.284066666667     0.636466666667    -0.229      
H        H      0.706000000000     0.062900000000     0.601600000000    -0.229      
H        H      0.637520000000     0.059666666667     0.545800000000    -0.229      
H        H      0.678060000000     0.082466666667     0.544533333333    -0.229      
H        H      0.791940000000     0.001300000000     0.560933333333    -0.229      
H        H      0.626640000000     0.019066666667     0.636466666667    -0.229      
H        H      0.606000000000     0.205366666667     0.601600000000    -0.229      
H        H      0.737520000000     0.152800000000     0.545800000000    -0.229      
H        H      0.778060000000     0.128733333333     0.544533333333    -0.229      
H        H      0.691940000000     0.226300000000     0.894266666667    -0.229      
H        H      0.726640000000     0.284066666667     0.969800000000    -0.229      
H        H      0.706000000000     0.062900000000     0.934933333333    -0.229      
H        H      0.637520000000     0.059666666667     0.879133333333    -0.229      
H        H      0.678060000000     0.082466666667     0.877866666667    -0.229      
H        H      0.791940000000     0.001300000000     0.894266666667    -0.229      
H        H      0.626640000000     0.019066666667     0.969800000000    -0.229      
H        H      0.606000000000     0.205366666667     0.934933333333    -0.229      
H        H      0.737520000000     0.152800000000     0.879133333333    -0.229      
H        H      0.778060000000     0.128733333333     0.877866666667    -0.229      
H        H      0.691940000000     0.559633333333     0.227600000000    -0.229      
H        H      0.726640000000     0.617400000000     0.303133333333    -0.229      
H        H      0.706000000000     0.396233333333     0.268266666667    -0.229      
H        H      0.637520000000     0.393000000000     0.212466666667    -0.229      
H        H      0.678060000000     0.415800000000     0.211200000000    -0.229      
H        H      0.791940000000     0.334633333333     0.227600000000    -0.229      
H        H      0.626640000000     0.352400000000     0.303133333333    -0.229      
H        H      0.606000000000     0.538700000000     0.268266666667    -0.229      
H        H      0.737520000000     0.486133333333     0.212466666667    -0.229      
H        H      0.778060000000     0.462066666667     0.211200000000    -0.229      
H        H      0.691940000000     0.559633333333     0.560933333333    -0.229      
H        H      0.726640000000     0.617400000000     0.636466666667    -0.229      
H        H      0.706000000000     0.396233333333     0.601600000000    -0.229      
H        H      0.637520000000     0.393000000000     0.545800000000    -0.229      
H        H      0.678060000000     0.415800000000     0.544533333333    -0.229      
H        H      0.791940000000     0.334633333333     0.560933333333    -0.229      
H        H      0.626640000000     0.352400000000     0.636466666667    -0.229      
H        H      0.606000000000     0.538700000000     0.601600000000    -0.229      
H        H      0.737520000000     0.486133333333     0.545800000000    -0.229      
H        H      0.778060000000     0.462066666667     0.544533333333    -0.229      
H        H      0.691940000000     0.559633333333     0.894266666667    -0.229      
H        H      0.726640000000     0.617400000000     0.969800000000    -0.229      
H        H      0.706000000000     0.396233333333     0.934933333333    -0.229      
H        H      0.637520000000     0.393000000000     0.879133333333    -0.229      
H        H      0.678060000000     0.415800000000     0.877866666667    -0.229      
H        H      0.791940000000     0.334633333333     0.894266666667    -0.229      
H        H      0.626640000000     0.352400000000     0.969800000000    -0.229      
H        H      0.606000000000     0.538700000000     0.934933333333    -0.229      
H        H      0.737520000000     0.486133333333     0.879133333333    -0.229      
H        H      0.778060000000     0.462066666667     0.877866666667    -0.229      
H        H      0.691940000000     0.892966666667     0.227600000000    -0.229      
H        H      0.726640000000     0.950733333333     0.303133333333    -0.229      
H        H      0.706000000000     0.729566666667     0.268266666667    -0.229      
H        H      0.637520000000     0.726333333333     0.212466666667    -0.229      
H        H      0.678060000000     0.749133333333     0.211200000000    -0.229      
H        H      0.791940000000     0.667966666667     0.227600000000    -0.229      
H        H      0.626640000000     0.685733333333     0.303133333333    -0.229      
H        H      0.606000000000     0.872033333333     0.268266666667    -0.229      
H        H      0.737520000000     0.819466666667     0.212466666667    -0.229      
H        H      0.778060000000     0.795400000000     0.211200000000    -0.229      
H        H      0.691940000000     0.892966666667     0.560933333333    -0.229      
H        H      0.726640000000     0.950733333333     0.636466666667    -0.229      
H        H      0.706000000000     0.729566666667     0.601600000000    -0.229      
H        H      0.637520000000     0.726333333333     0.545800000000    -0.229      
H        H      0.678060000000     0.749133333333     0.544533333333    -0.229      
H        H      0.791940000000     0.667966666667     0.560933333333    -0.229      
H        H      0.626640000000     0.685733333333     0.636466666667    -0.229      
H        H      0.606000000000     0.872033333333     0.601600000000    -0.229      
H        H      0.737520000000     0.819466666667     0.545800000000    -0.229      
H        H      0.778060000000     0.795400000000     0.544533333333    -0.229      
H        H      0.691940000000     0.892966666667     0.894266666667    -0.229      
H        H      0.726640000000     0.950733333333     0.969800000000    -0.229      
H        H      0.706000000000     0.729566666667     0.934933333333    -0.229      
H        H      0.637520000000     0.726333333333     0.879133333333    -0.229      
H        H      0.678060000000     0.749133333333     0.877866666667    -0.229      
H        H      0.791940000000     0.667966666667     0.894266666667    -0.229      
H        H      0.626640000000     0.685733333333     0.969800000000    -0.229      
H        H      0.606000000000     0.872033333333     0.934933333333    -0.229      
H        H      0.737520000000     0.819466666667     0.879133333333    -0.229      
H        H      0.778060000000     0.795400000000     0.877866666667    -0.229      
H        H      0.891940000000     0.226300000000     0.227600000000    -0.229      
H        H      0.926640000000     0.284066666667     0.303133333333    -0.229      
H        H      0.906000000000     0.062900000000     0.268266666667    -0.229      
H        H      0.837520000000     0.059666666667     0.212466666667    -0.229      
H        H      0.878060000000     0.082466666667     0.211200000000    -0.229      
H        H      0.991940000000     0.001300000000     0.227600000000    -0.229      
H        H      0.826640000000     0.019066666667     0.303133333333    -0.229      
H        H      0.806000000000     0.205366666667     0.268266666667    -0.229      
H        H      0.937520000000     0.152800000000     0.212466666667    -0.229      
H        H      0.978060000000     0.128733333333     0.211200000000    -0.229      
H        H      0.891940000000     0.226300000000     0.560933333333    -0.229      
H        H      0.926640000000     0.284066666667     0.636466666667    -0.229      
H        H      0.906000000000     0.062900000000     0.601600000000    -0.229      
H        H      0.837520000000     0.059666666667     0.545800000000    -0.229      
H        H      0.878060000000     0.082466666667     0.544533333333    -0.229      
H        H      0.991940000000     0.001300000000     0.560933333333    -0.229      
H        H      0.826640000000     0.019066666667     0.636466666667    -0.229      
H        H      0.806000000000     0.205366666667     0.601600000000    -0.229      
H        H      0.937520000000     0.152800000000     0.545800000000    -0.229      
H        H      0.978060000000     0.128733333333     0.544533333333    -0.229      
H        H      0.891940000000     0.226300000000     0.894266666667    -0.229      
H        H      0.926640000000     0.284066666667     0.969800000000    -0.229      
H        H      0.906000000000     0.062900000000     0.934933333333    -0.229      
H        H      0.837520000000     0.059666666667     0.879133333333    -0.229      
H        H      0.878060000000     0.082466666667     0.877866666667    -0.229      
H        H      0.991940000000     0.001300000000     0.894266666667    -0.229      
H        H      0.826640000000     0.019066666667     0.969800000000    -0.229      
H        H      0.806000000000     0.205366666667     0.934933333333    -0.229      
H        H      0.937520000000     0.152800000000     0.879133333333    -0.229      
H        H      0.978060000000     0.128733333333     0.877866666667    -0.229      
H        H      0.891940000000     0.559633333333     0.227600000000    -0.229      
H        H      0.926640000000     0.617400000000     0.303133333333    -0.229      
H        H      0.906000000000     0.396233333333     0.268266666667    -0.229      
H        H      0.837520000000     0.393000000000     0.212466666667    -0.229      
H        H      0.878060000000     0.415800000000     0.211200000000    -0.229      
H        H      0.991940000000     0.334633333333     0.227600000000    -0.229      
H        H      0.826640000000     0.352400000000     0.303133333333    -0.229      
H        H      0.806000000000     0.538700000000     0.268266666667    -0.229      
H        H      0.937520000000     0.486133333333     0.212466666667    -0.229      
H        H      0.978060000000     0.462066666667     0.211200000000    -0.229      
H        H      0.891940000000     0.559633333333     0.560933333333    -0.229      
H        H      0.926640000000     0.617400000000     0.636466666667    -0.229      
H        H      0.906000000000     0.396233333333     0.601600000000    -0.229      
H        H      0.837520000000     0.393000000000     0.545800000000    -0.229      
H        H      0.878060000000     0.415800000000     0.544533333333    -0.229      
H        H      0.991940000000     0.334633333333     0.560933333333    -0.229      
H        H      0.826640000000     0.352400000000     0.636466666667    -0.229      
H        H      0.806000000000     0.538700000000     0.601600000000    -0.229      
H        H      0.937520000000     0.486133333333     0.545800000000    -0.229      
H        H      0.978060000000     0.462066666667     0.544533333333    -0.229      
H        H      0.891940000000     0.559633333333     0.894266666667    -0.229      
H        H      0.926640000000     0.617400000000     0.969800000000    -0.229      
H        H      0.906000000000     0.396233333333     0.934933333333    -0.229      
H        H      0.837520000000     0.393000000000     0.879133333333    -0.229      
H        H      0.878060000000     0.415800000000     0.877866666667    -0.229      
H        H      0.991940000000     0.334633333333     0.894266666667    -0.229      
H        H      0.826640000000     0.352400000000     0.969800000000    -0.229      
H        H      0.806000000000     0.538700000000     0.934933333333    -0.229      
H        H      0.937520000000     0.486133333333     0.879133333333    -0.229      
H        H      0.978060000000     0.462066666667     0.877866666667    -0.229      
H        H      0.891940000000     0.892966666667     0.227600000000    -0.229      
H        H      0.926640000000     0.950733333333     0.303133333333    -0.229      
H        H      0.906000000000     0.729566666667     0.268266666667    -0.229      
H        H      0.837520000000     0.726333333333     0.212466666667    -0.229      
H        H      0.878060000000     0.749133333333     0.211200000000    -0.229      
H        H      0.991940000000     0.667966666667     0.227600000000    -0.229      
H        H      0.826640000000     0.685733333333     0.303133333333    -0.229      
H        H      0.806000000000     0.872033333333     0.268266666667    -0.229      
H        H      0.937520000000     0.819466666667     0.212466666667    -0.229      
H        H      0.978060000000     0.795400000000     0.211200000000    -0.229      
H        H      0.891940000000     0.892966666667     0.560933333333    -0.229      
H        H      0.926640000000     0.950733333333     0.636466666667    -0.229      
H        H      0.906000000000     0.729566666667     0.601600000000    -0.229      
H        H      0.837520000000     0.726333333333     0.545800000000    -0.229      
H        H      0.878060000000     0.749133333333     0.544533333333    -0.229      
H        H      0.991940000000     0.667966666667     0.560933333333    -0.229      
H        H      0.826640000000     0.685733333333     0.636466666667    -0.229      
H        H      0.806000000000     0.872033333333     0.601600000000    -0.229      
H        H      0.937520000000     0.819466666667     0.545800000000    -0.229      
H        H      0.978060000000     0.795400000000     0.544533333333    -0.229      
H        H      0.891940000000     0.892966666667     0.894266666667    -0.229      
H        H      0.926640000000     0.950733333333     0.969800000000    -0.229      
H        H      0.906000000000     0.729566666667     0.934933333333    -0.229      
H        H      0.837520000000     0.726333333333     0.879133333333    -0.229      
H        H      0.878060000000     0.749133333333     0.877866666667    -0.229      
H        H      0.991940000000     0.667966666667     0.894266666667    -0.229      
H        H      0.826640000000     0.685733333333     0.969800000000    -0.229      
H        H      0.806000000000     0.872033333333     0.934933333333    -0.229      
H        H      0.937520000000     0.819466666667     0.879133333333    -0.229      
H        H      0.978060000000     0.795400000000     0.877866666667    -0.229      
O        O      0.070060000000     0.007300000000     0.179666666667     0.458      
O        O      0.031300000000     0.018206666667     0.110213333333     0.458      
O        O      0.020040000000     0.096326666667     0.153053333333     0.458      
O        O      0.056920000000     0.243803333333     0.117073333333     0.458      
O        O      0.045140000000     0.194096666667     0.147193333333     0.458      
O        O      0.167300000000     0.039583333333     0.034100000000     0.458      
O        O      0.131960000000     0.096100000000     0.023333333333     0.458      
O        O      0.170060000000     0.172366666667     0.179666666667     0.458      
O        O      0.131300000000     0.092006666667     0.110213333333     0.458      
O        O      0.120040000000     0.056726666667     0.153053333333     0.458      
O        O      0.156920000000     0.206603333333     0.117073333333     0.458      
O        O      0.145140000000     0.286430000000     0.147193333333     0.458      
O        O      0.067300000000     0.327850000000     0.034100000000     0.458      
O        O      0.031960000000     0.260566666667     0.023333333333     0.458      
O        O      0.070060000000     0.007300000000     0.513000000000     0.458      
O        O      0.031300000000     0.018206666667     0.443546666667     0.458      
O        O      0.020040000000     0.096326666667     0.486386666667     0.458      
O        O      0.056920000000     0.243803333333     0.450406666667     0.458      
O        O      0.045140000000     0.194096666667     0.480526666667     0.458      
O        O      0.167300000000     0.039583333333     0.367433333333     0.458      
O        O      0.131960000000     0.096100000000     0.356666666667     0.458      
O        O      0.170060000000     0.172366666667     0.513000000000     0.458      
O        O      0.131300000000     0.092006666667     0.443546666667     0.458      
O        O      0.120040000000     0.056726666667     0.486386666667     0.458      
O        O      0.156920000000     0.206603333333     0.450406666667     0.458      
O        O      0.145140000000     0.286430000000     0.480526666667     0.458      
O        O      0.067300000000     0.327850000000     0.367433333333     0.458      
O        O      0.031960000000     0.260566666667     0.356666666667     0.458      
O        O      0.070060000000     0.007300000000     0.846333333333     0.458      
O        O      0.031300000000     0.018206666667     0.776880000000     0.458      
O        O      0.020040000000     0.096326666667     0.819720000000     0.458      
O        O      0.056920000000     0.243803333333     0.783740000000     0.458      
O        O      0.045140000000     0.194096666667     0.813860000000     0.458      
O        O      0.167300000000     0.039583333333     0.700766666667     0.458      
O        O      0.131960000000     0.096100000000     0.690000000000     0.458      
O        O      0.170060000000     0.172366666667     0.846333333333     0.458      
O        O      0.131300000000     0.092006666667     0.776880000000     0.458      
O        O      0.120040000000     0.056726666667     0.819720000000     0.458      
O        O      0.156920000000     0.206603333333     0.783740000000     0.458      
O        O      0.145140000000     0.286430000000     0.813860000000     0.458      
O        O      0.067300000000     0.327850000000     0.700766666667     0.458      
O        O      0.031960000000     0.260566666667     0.690000000000     0.458      
O        O      0.070060000000     0.340633333333     0.179666666667     0.458      
O        O      0.031300000000     0.351540000000     0.110213333333     0.458      
O        O      0.020040000000     0.429660000000     0.153053333333     0.458      
O        O      0.056920000000     0.577136666667     0.117073333333     0.458      
O        O      0.045140000000     0.527430000000     0.147193333333     0.458      
O        O      0.167300000000     0.372916666667     0.034100000000     0.458      
O        O      0.131960000000     0.429433333333     0.023333333333     0.458      
O        O      0.170060000000     0.505700000000     0.179666666667     0.458      
O        O      0.131300000000     0.425340000000     0.110213333333     0.458      
O        O      0.120040000000     0.390060000000     0.153053333333     0.458      
O        O      0.156920000000     0.539936666667     0.117073333333     0.458      
O        O      0.145140000000     0.619763333333     0.147193333333     0.458      
O        O      0.067300000000     0.661183333333     0.034100000000     0.458      
O        O      0.031960000000     0.593900000000     0.023333333333     0.458      
O        O      0.070060000000     0.340633333333     0.513000000000     0.458      
O        O      0.031300000000     0.351540000000     0.443546666667     0.458      
O        O      0.020040000000     0.429660000000     0.486386666667     0.458      
O        O      0.056920000000     0.577136666667     0.450406666667     0.458      
O        O      0.045140000000     0.527430000000     0.480526666667     0.458      
O        O      0.167300000000     0.372916666667     0.367433333333     0.458      
O        O      0.131960000000     0.429433333333     0.356666666667     0.458      
O        O      0.170060000000     0.505700000000     0.513000000000     0.458      
O        O      0.131300000000     0.425340000000     0.443546666667     0.458      
O        O      0.120040000000     0.390060000000     0.486386666667     0.458      
O        O      0.156920000000     0.539936666667     0.450406666667     0.458      
O        O      0.145140000000     0.619763333333     0.480526666667     0.458      
O        O      0.067300000000     0.661183333333     0.367433333333     0.458      
O        O      0.031960000000     0.593900000000     0.356666666667     0.458      
O        O      0.070060000000     0.340633333333     0.846333333333     0.458      
O        O      0.031300000000     0.351540000000     0.776880000000     0.458      
O        O      0.020040000000     0.429660000000     0.819720000000     0.458      
O        O      0.056920000000     0.577136666667     0.783740000000     0.458      
O        O      0.045140000000     0.527430000000     0.813860000000     0.458      
O        O      0.167300000000     0.372916666667     0.700766666667     0.458      
O        O      0.131960000000     0.429433333333     0.690000000000     0.458      
O        O      0.170060000000     0.505700000000     0.846333333333     0.458      
O        O      0.131300000000     0.425340000000     0.776880000000     0.458      
O        O      0.120040000000     0.390060000000     0.819720000000     0.458      
O        O      0.156920000000     0.539936666667     0.783740000000     0.458      
O        O      0.145140000000     0.619763333333     0.813860000000     0.458      
O        O      0.067300000000     0.661183333333     0.700766666667     0.458      
O        O      0.031960000000     0.593900000000     0.690000000000     0.458      
O        O      0.070060000000     0.673966666667     0.179666666667     0.458      
O        O      0.031300000000     0.684873333333     0.110213333333     0.458      
O        O      0.020040000000     0.762993333333     0.153053333333     0.458      
O        O      0.056920000000     0.910470000000     0.117073333333     0.458      
O        O      0.045140000000     0.860763333333     0.147193333333     0.458      
O        O      0.167300000000     0.706250000000     0.034100000000     0.458      
O        O      0.131960000000     0.762766666667     0.023333333333     0.458      
O        O      0.170060000000     0.839033333333     0.179666666667     0.458      
O        O      0.131300000000     0.758673333333     0.110213333333     0.458      
O        O      0.120040000000     0.723393333333     0.153053333333     0.458      
O        O      0.156920000000     0.873270000000     0.117073333333     0.458      
O        O      0.145140000000     0.953096666667     0.147193333333     0.458      
O        O      0.067300000000     0.994516666667     0.034100000000     0.458      
O        O      0.031960000000     0.927233333333     0.023333333333     0.458      
O        O      0.070060000000     0.673966666667     0.513000000000     0.458      
O        O      0.031300000000     0.684873333333     0.443546666667     0.458      
O        O      0.020040000000     0.762993333333     0.486386666667     0.458      
O        O      0.056920000000     0.910470000000     0.450406666667     0.458      
O        O      0.045140000000     0.860763333333     0.480526666667     0.458      
O        O      0.167300000000     0.706250000000     0.367433333333     0.458      
O        O      0.131960000000     0.762766666667     0.356666666667     0.458      
O        O      0.170060000000     0.839033333333     0.513000000000     0.458      
O        O      0.131300000000     0.758673333333     0.443546666667     0.458      
O        O      0.120040000000     0.723393333333     0.486386666667     0.458      
O        O      0.156920000000     0.873270000000     0.450406666667     0.458      
O        O      0.145140000000     0.953096666667     0.480526666667     0.458      
O        O      0.067300000000     0.994516666667     0.367433333333     0.458      
O        O      0.031960000000     0.927233333333     0.356666666667     0.458      
O        O      0.070060000000     0.673966666667     0.846333333333     0.458      
O        O      0.031300000000     0.684873333333     0.776880000000     0.458      
O        O      0.020040000000     0.762993333333     0.819720000000     0.458      
O        O      0.056920000000     0.910470000000     0.783740000000     0.458      
O        O      0.045140000000     0.860763333333     0.813860000000     0.458      
O        O      0.167300000000     0.706250000000     0.700766666667     0.458      
O        O      0.131960000000     0.762766666667     0.690000000000     0.458      
O        O      0.170060000000     0.839033333333     0.846333333333     0.458      
O        O      0.131300000000     0.758673333333     0.776880000000     0.458      
O        O      0.120040000000     0.723393333333     0.819720000000     0.458      
O        O      0.156920000000     0.873270000000     0.783740000000     0.458      
O        O      0.145140000000     0.953096666667     0.813860000000     0.458      
O        O      0.067300000000     0.994516666667     0.700766666667     0.458      
O        O      0.031960000000     0.927233333333     0.690000000000     0.458      
O        O      0.270060000000     0.007300000000     0.179666666667     0.458      
O        O      0.231300000000     0.018206666667     0.110213333333     0.458      
O        O      0.220040000000     0.096326666667     0.153053333333     0.458      
O        O      0.256920000000     0.243803333333     0.117073333333     0.458      
O        O      0.245140000000     0.194096666667     0.147193333333     0.458      
O        O      0.367300000000     0.039583333333     0.034100000000     0.458      
O        O      0.331960000000     0.096100000000     0.023333333333     0.458      
O        O      0.370060000000     0.172366666667     0.179666666667     0.458      
O        O      0.331300000000     0.092006666667     0.110213333333     0.458      
O        O      0.320040000000     0.056726666667     0.153053333333     0.458      
O        O      0.356920000000     0.206603333333     0.117073333333     0.458      
O        O      0.345140000000     0.286430000000     0.147193333333     0.458      
O        O      0.267300000000     0.327850000000     0.034100000000     0.458      
O        O      0.231960000000     0.260566666667     0.023333333333     0.458      
O        O      0.270060000000     0.007300000000     0.513000000000     0.458      
O        O      0.231300000000     0.018206666667     0.443546666667     0.458      
O        O      0.220040000000     0.096326666667     0.486386666667     0.458      
O        O      0.256920000000     0.243803333333     0.450406666667     0.458      
O        O      0.245140000000     0.194096666667     0.480526666667     0.458      
O        O      0.367300000000     0.039583333333     0.367433333333     0.458      
O        O      0.331960000000     0.096100000000     0.356666666667     0.458      
O        O      0.370060000000     0.172366666667     0.513000000000     0.458      
O        O      0.331300000000     0.092006666667     0.443546666667     0.458      
O        O      0.320040000000     0.056726666667     0.486386666667     0.458      
O        O      0.356920000000     0.206603333333     0.450406666667     0.458      
O        O      0.345140000000     0.286430000000     0.480526666667     0.458      
O        O      0.267300000000     0.327850000000     0.367433333333     0.458      
O        O      0.231960000000     0.260566666667     0.356666666667     0.458      
O        O      0.270060000000     0.007300000000     0.846333333333     0.458      
O        O      0.231300000000     0.018206666667     0.776880000000     0.458      
O        O      0.220040000000     0.096326666667     0.819720000000     0.458      
O        O      0.256920000000     0.243803333333     0.783740000000     0.458      
O        O      0.245140000000     0.194096666667     0.813860000000     0.458      
O        O      0.367300000000     0.039583333333     0.700766666667     0.458      
O        O      0.331960000000     0.096100000000     0.690000000000     0.458      
O        O      0.370060000000     0.172366666667     0.846333333333     0.458      
O        O      0.331300000000     0.092006666667     0.776880000000     0.458      
O        O      0.320040000000     0.056726666667     0.819720000000     0.458      
O        O      0.356920000000     0.206603333333     0.783740000000     0.458      
O        O      0.345140000000     0.286430000000     0.813860000000     0.458      
O        O      0.267300000000     0.327850000000     0.700766666667     0.458      
O        O      0.231960000000     0.260566666667     0.690000000000     0.458      
O        O      0.270060000000     0.340633333333     0.179666666667     0.458      
O        O      0.231300000000     0.351540000000     0.110213333333     0.458      
O        O      0.220040000000     0.429660000000     0.153053333333     0.458      
O        O      0.256920000000     0.577136666667     0.117073333333     0.458      
O        O      0.245140000000     0.527430000000     0.147193333333     0.458      
O        O      0.367300000000     0.372916666667     0.034100000000     0.458      
O        O      0.331960000000     0.429433333333     0.023333333333     0.458      
O        O      0.370060000000     0.505700000000     0.179666666667     0.458      
O        O      0.331300000000     0.425340000000     0.110213333333     0.458      
O        O      0.320040000000     0.390060000000     0.153053333333     0.458      
O        O      0.356920000000     0.539936666667     0.117073333333     0.458      
O        O      0.345140000000     0.619763333333     0.147193333333     0.458      
O        O      0.267300000000     0.661183333333     0.034100000000     0.458      
O        O      0.231960000000     0.593900000000     0.023333333333     0.458      
O        O      0.270060000000     0.340633333333     0.513000000000     0.458      
O        O      0.231300000000     0.351540000000     0.443546666667     0.458      
O        O      0.220040000000     0.429660000000     0.486386666667     0.458      
O        O      0.256920000000     0.577136666667     0.450406666667     0.458      
O        O      0.245140000000     0.527430000000     0.480526666667     0.458      
O        O      0.367300000000     0.372916666667     0.367433333333     0.458      
O        O      0.331960000000     0.429433333333     0.356666666667     0.458      
O        O      0.370060000000     0.505700000000     0.513000000000     0.458      
O        O      0.331300000000     0.425340000000     0.443546666667     0.458      
O        O      0.320040000000     0.390060000000     0.486386666667     0.458      
O        O      0.356920000000     0.539936666667     0.450406666667     0.458      
O        O      0.345140000000     0.619763333333     0.480526666667     0.458      
O        O      0.267300000000     0.661183333333     0.367433333333     0.458      
O        O      0.231960000000     0.593900000000     0.356666666667     0.458      
O        O      0.270060000000     0.340633333333     0.846333333333     0.458      
O        O      0.231300000000     0.351540000000     0.776880000000     0.458      
O        O      0.220040000000     0.429660000000     0.819720000000     0.458      
O        O      0.256920000000     0.577136666667     0.783740000000     0.458      
O        O      0.245140000000     0.527430000000     0.813860000000     0.458      
O        O      0.367300000000     0.372916666667     0.700766666667     0.458      
O        O      0.331960000000     0.429433333333     0.690000000000     0.458      
O        O      0.370060000000     0.505700000000     0.846333333333     0.458      
O        O      0.331300000000     0.425340000000     0.776880000000     0.458      
O        O      0.320040000000     0.390060000000     0.819720000000     0.458      
O        O      0.356920000000     0.539936666667     0.783740000000     0.458      
O        O      0.345140000000     0.619763333333     0.813860000000     0.458      
O        O      0.267300000000     0.661183333333     0.700766666667     0.458      
O        O      0.231960000000     0.593900000000     0.690000000000     0.458      
O        O      0.270060000000     0.673966666667     0.179666666667     0.458      
O        O      0.231300000000     0.684873333333     0.110213333333     0.458      
O        O      0.220040000000     0.762993333333     0.153053333333     0.458      
O        O      0.256920000000     0.910470000000     0.117073333333     0.458      
O        O      0.245140000000     0.860763333333     0.147193333333     0.458      
O        O      0.367300000000     0.706250000000     0.034100000000     0.458      
O        O      0.331960000000     0.762766666667     0.023333333333     0.458      
O        O      0.370060000000     0.839033333333     0.179666666667     0.458      
O        O      0.331300000000     0.758673333333     0.110213333333     0.458      
O        O      0.320040000000     0.723393333333     0.153053333333     0.458      
O        O      0.356920000000     0.873270000000     0.117073333333     0.458      
O        O      0.345140000000     0.953096666667     0.147193333333     0.458      
O        O      0.267300000000     0.994516666667     0.034100000000     0.458      
O        O      0.231960000000     0.927233333333     0.023333333333     0.458      
O        O      0.270060000000     0.673966666667     0.513000000000     0.458      
O        O      0.231300000000     0.684873333333     0.443546666667     0.458      
O        O      0.220040000000     0.762993333333     0.486386666667     0.458      
O        O      0.256920000000     0.910470000000     0.450406666667     0.458      
O        O      0.245140000000     0.860763333333     0.480526666667     0.458      
O        O      0.367300000000     0.706250000000     0.367433333333     0.458      
O        O      0.331960000000     0.762766666667     0.356666666667     0.458      
O        O      0.370060000000     0.839033333333     0.513000000000     0.458      
O        O      0.331300000000     0.758673333333     0.443546666667     0.458      
O        O      0.320040000000     0.723393333333     0.486386666667     0.458      
O        O      0.356920000000     0.873270000000     0.450406666667     0.458      
O        O      0.345140000000     0.953096666667     0.480526666667     0.458      
O        O      0.267300000000     0.994516666667     0.367433333333     0.458      
O        O      0.231960000000     0.927233333333     0.356666666667     0.458      
O        O      0.270060000000     0.673966666667     0.846333333333     0.458      
O        O      0.231300000000     0.684873333333     0.776880000000     0.458      
O        O      0.220040000000     0.762993333333     0.819720000000     0.458      
O        O      0.256920000000     0.910470000000     0.783740000000     0.458      
O        O      0.245140000000     0.860763333333     0.813860000000     0.458      
O        O      0.367300000000     0.706250000000     0.700766666667     0.458      
O        O      0.331960000000     0.762766666667     0.690000000000     0.458      
O        O      0.370060000000     0.839033333333     0.846333333333     0.458      
O        O      0.331300000000     0.758673333333     0.776880000000     0.458      
O        O      0.320040000000     0.723393333333     0.819720000000     0.458      
O        O      0.356920000000     0.873270000000     0.783740000000     0.458      
O        O      0.345140000000     0.953096666667     0.813860000000     0.458      
O        O      0.267300000000     0.994516666667     0.700766666667     0.458      
O        O      0.231960000000     0.927233333333     0.690000000000     0.458      
O        O      0.470060000000     0.007300000000     0.179666666667     0.458      
O        O      0.431300000000     0.018206666667     0.110213333333     0.458      
O        O      0.420040000000     0.096326666667     0.153053333333     0.458      
O        O      0.456920000000     0.243803333333     0.117073333333     0.458      
O        O      0.445140000000     0.194096666667     0.147193333333     0.458      
O        O      0.567300000000     0.039583333333     0.034100000000     0.458      
O        O      0.531960000000     0.096100000000     0.023333333333     0.458      
O        O      0.570060000000     0.172366666667     0.179666666667     0.458      
O        O      0.531300000000     0.092006666667     0.110213333333     0.458      
O        O      0.520040000000     0.056726666667     0.153053333333     0.458      
O        O      0.556920000000     0.206603333333     0.117073333333     0.458      
O        O      0.545140000000     0.286430000000     0.147193333333     0.458      
O        O      0.467300000000     0.327850000000     0.034100000000     0.458      
O        O      0.431960000000     0.260566666667     0.023333333333     0.458      
O        O      0.470060000000     0.007300000000     0.513000000000     0.458      
O        O      0.431300000000     0.018206666667     0.443546666667     0.458      
O        O      0.420040000000     0.096326666667     0.486386666667     0.458      
O        O      0.456920000000     0.243803333333     0.450406666667     0.458      
O        O      0.445140000000     0.194096666667     0.480526666667     0.458      
O        O      0.567300000000     0.039583333333     0.367433333333     0.458      
O        O      0.531960000000     0.096100000000     0.356666666667     0.458      
O        O      0.570060000000     0.172366666667     0.513000000000     0.458      
O        O      0.531300000000     0.092006666667     0.443546666667     0.458      
O        O      0.520040000000     0.056726666667     0.486386666667     0.458      
O        O      0.556920000000     0.206603333333     0.450406666667     0.458      
O        O      0.545140000000     0.286430000000     0.480526666667     0.458      
O        O      0.467300000000     0.327850000000     0.367433333333     0.458      
O        O      0.431960000000     0.260566666667     0.356666666667     0.458      
O        O      0.470060000000     0.007300000000     0.846333333333     0.458      
O        O      0.431300000000     0.018206666667     0.776880000000     0.458      
O        O      0.420040000000     0.096326666667     0.819720000000     0.458      
O        O      0.456920000000     0.243803333333     0.783740000000     0.458      
O        O      0.445140000000     0.194096666667     0.813860000000     0.458      
O        O      0.567300000000     0.039583333333     0.700766666667     0.458      
O        O      0.531960000000     0.096100000000     0.690000000000     0.458      
O        O      0.570060000000     0.172366666667     0.846333333333     0.458      
O        O      0.531300000000     0.092006666667     0.776880000000     0.458      
O        O      0.520040000000     0.056726666667     0.819720000000     0.458      
O        O      0.556920000000     0.206603333333     0.783740000000     0.458      
O        O      0.545140000000     0.286430000000     0.813860000000     0.458      
O        O      0.467300000000     0.327850000000     0.700766666667     0.458      
O        O      0.431960000000     0.260566666667     0.690000000000     0.458      
O        O      0.470060000000     0.340633333333     0.179666666667     0.458      
O        O      0.431300000000     0.351540000000     0.110213333333     0.458      
O        O      0.420040000000     0.429660000000     0.153053333333     0.458      
O        O      0.456920000000     0.577136666667     0.117073333333     0.458      
O        O      0.445140000000     0.527430000000     0.147193333333     0.458      
O        O      0.567300000000     0.372916666667     0.034100000000     0.458      
O        O      0.531960000000     0.429433333333     0.023333333333     0.458      
O        O      0.570060000000     0.505700000000     0.179666666667     0.458      
O        O      0.531300000000     0.425340000000     0.110213333333     0.458      
O        O      0.520040000000     0.390060000000     0.153053333333     0.458      
O        O      0.556920000000     0.539936666667     0.117073333333     0.458      
O        O      0.545140000000     0.619763333333     0.147193333333     0.458      
O        O      0.467300000000     0.661183333333     0.034100000000     0.458      
O        O      0.431960000000     0.593900000000     0.023333333333     0.458      
O        O      0.470060000000     0.340633333333     0.513000000000     0.458      
O        O      0.431300000000     0.351540000000     0.443546666667     0.458      
O        O      0.420040000000     0.429660000000     0.486386666667     0.458      
O        O      0.456920000000     0.577136666667     0.450406666667     0.458      
O        O      0.445140000000     0.527430000000     0.480526666667     0.458      
O        O      0.567300000000     0.372916666667     0.367433333333     0.458      
O        O      0.531960000000     0.429433333333     0.356666666667     0.458      
O        O      0.570060000000     0.505700000000     0.513000000000     0.458      
O        O      0.531300000000     0.425340000000     0.443546666667     0.458      
O        O      0.520040000000     0.390060000000     0.486386666667     0.458      
O        O      0.556920000000     0.539936666667     0.450406666667     0.458      
O        O      0.545140000000     0.619763333333     0.480526666667     0.458      
O        O      0.467300000000     0.661183333333     0.367433333333     0.458      
O        O      0.431960000000     0.593900000000     0.356666666667     0.458      
O        O      0.470060000000     0.340633333333     0.846333333333     0.458      
O        O      0.431300000000     0.351540000000     0.776880000000     0.458      
O        O      0.420040000000     0.429660000000     0.819720000000     0.458      
O        O      0.456920000000     0.577136666667     0.783740000000     0.458      
O        O      0.445140000000     0.527430000000     0.813860000000     0.458      
O        O      0.567300000000     0.372916666667     0.700766666667     0.458      
O        O      0.531960000000     0.429433333333     0.690000000000     0.458      
O        O      0.570060000000     0.505700000000     0.846333333333     0.458      
O        O      0.531300000000     0.425340000000     0.776880000000     0.458      
O        O      0.520040000000     0.390060000000     0.819720000000     0.458      
O        O      0.556920000000     0.539936666667     0.783740000000     0.458      
O        O      0.545140000000     0.619763333333     0.813860000000     0.458      
O        O      0.467300000000     0.661183333333     0.700766666667     0.458      
O        O      0.431960000000     0.593900000000     0.690000000000     0.458      
O        O      0.470060000000     0.673966666667     0.179666666667     0.458      
O        O      0.431300000000     0.684873333333     0.110213333333     0.458      
O        O      0.420040000000     0.762993333333     0.153053333333     0.458      
O        O      0.456920000000     0.910470000000     0.117073333333     0.458      
O        O      0.445140000000     0.860763333333     0.147193333333     0.458      
O        O      0.567300000000     0.706250000000     0.034100000000     0.458      
O        O      0.531960000000     0.762766666667     0.023333333333     0.458      
O        O      0.570060000000     0.839033333333     0.179666666667     0.458      
O        O      0.531300000000     0.758673333333     0.110213333333     0.458      
O        O      0.520040000000     0.723393333333     0.153053333333     0.458      
O        O      0.556920000000     0.873270000000     0.117073333333     0.458      
O        O      0.545140000000     0.953096666667     0.147193333333     0.458      
O        O      0.467300000000     0.994516666667     0.034100000000     0.458      
O        O      0.431960000000     0.927233333333     0.023333333333     0.458      
O        O      0.470060000000     0.673966666667     0.513000000000     0.458      
O        O      0.431300000000     0.684873333333     0.443546666667     0.458      
O        O      0.420040000000     0.762993333333     0.486386666667     0.458      
O        O      0.456920000000     0.910470000000     0.450406666667     0.458      
O        O      0.445140000000     0.860763333333     0.480526666667     0.458      
O        O      0.567300000000     0.706250000000     0.367433333333     0.458      
O        O      0.531960000000     0.762766666667     0.356666666667     0.458      
O        O      0.570060000000     0.839033333333     0.513000000000     0.458      
O        O      0.531300000000     0.758673333333     0.443546666667     0.458      
O        O      0.520040000000     0.723393333333     0.486386666667     0.458      
O        O      0.556920000000     0.873270000000     0.450406666667     0.458      
O        O      0.545140000000     0.953096666667     0.480526666667     0.458      
O        O      0.467300000000     0.994516666667     0.367433333333     0.458      
O        O      0.431960000000     0.927233333333     0.356666666667     0.458      
O        O      0.470060000000     0.673966666667     0.846333333333     0.458      
O        O      0.431300000000     0.684873333333     0.776880000000     0.458      
O        O      0.420040000000     0.762993333333     0.819720000000     0.458      
O        O      0.456920000000     0.910470000000     0.783740000000     0.458      
O        O      0.445140000000     0.860763333333     0.813860000000     0.458      
O        O      0.567300000000     0.706250000000     0.700766666667     0.458      
O        O      0.531960000000     0.762766666667     0.690000000000     0.458      
O        O      0.570060000000     0.839033333333     0.846333333333     0.458      
O        O      0.531300000000     0.758673333333     0.776880000000     0.458      
O        O      0.520040000000     0.723393333333     0.819720000000     0.458      
O        O      0.556920000000     0.873270000000     0.783740000000     0.458      
O        O      0.545140000000     0.953096666667     0.813860000000     0.458      
O        O      0.467300000000     0.994516666667     0.700766666667     0.458      
O        O      0.431960000000     0.927233333333     0.690000000000     0.458      
O        O      0.670060000000     0.007300000000     0.179666666667     0.458      
O        O      0.631300000000     0.018206666667     0.110213333333     0.458      
O        O      0.620040000000     0.096326666667     0.153053333333     0.458      
O        O      0.656920000000     0.243803333333     0.117073333333     0.458      
O        O      0.645140000000     0.194096666667     0.147193333333     0.458      
O        O      0.767300000000     0.039583333333     0.034100000000     0.458      
O        O      0.731960000000     0.096100000000     0.023333333333     0.458      
O        O      0.770060000000     0.172366666667     0.179666666667     0.458      
O        O      0.731300000000     0.092006666667     0.110213333333     0.458      
O        O      0.720040000000     0.056726666667     0.153053333333     0.458      
O        O      0.756920000000     0.206603333333     0.117073333333     0.458      
O        O      0.745140000000     0.286430000000     0.147193333333     0.458      
O        O      0.667300000000     0.327850000000     0.034100000000     0.458      
O        O      0.631960000000     0.260566666667     0.023333333333     0.458      
O        O      0.670060000000     0.007300000000     0.513000000000     0.458      
O        O      0.631300000000     0.018206666667     0.443546666667     0.458      
O        O      0.620040000000     0.096326666667     0.486386666667     0.458      
O        O      0.656920000000     0.243803333333     0.450406666667     0.458      
O        O      0.645140000000     0.194096666667     0.480526666667     0.458      
O        O      0.767300000000     0.039583333333     0.367433333333     0.458      
O        O      0.731960000000     0.096100000000     0.356666666667     0.458      
O        O      0.770060000000     0.172366666667     0.513000000000     0.458      
O        O      0.731300000000     0.092006666667     0.443546666667     0.458      
O        O      0.720040000000     0.056726666667     0.486386666667     0.458      
O        O      0.756920000000     0.206603333333     0.450406666667     0.458      
O        O      0.745140000000     0.286430000000     0.480526666667     0.458      
O        O      0.667300000000     0.327850000000     0.367433333333     0.458      
O        O      0.631960000000     0.260566666667     0.356666666667     0.458      
O        O      0.670060000000     0.007300000000     0.846333333333     0.458      
O        O      0.631300000000     0.018206666667     0.776880000000     0.458      
O        O      0.620040000000     0.096326666667     0.819720000000     0.458      
O        O      0.656920000000     0.243803333333     0.783740000000     0.458      
O        O      0.645140000000     0.194096666667     0.813860000000     0.458      
O        O      0.767300000000     0.039583333333     0.700766666667     0.458      
O        O      0.731960000000     0.096100000000     0.690000000000     0.458      
O        O      0.770060000000     0.172366666667     0.846333333333     0.458      
O        O      0.731300000000     0.092006666667     0.776880000000     0.458      
O        O      0.720040000000     0.056726666667     0.819720000000     0.458      
O        O      0.756920000000     0.206603333333     0.783740000000     0.458      
O        O      0.745140000000     0.286430000000     0.813860000000     0.458      
O        O      0.667300000000     0.327850000000     0.700766666667     0.458      
O        O      0.631960000000     0.260566666667     0.690000000000     0.458      
O        O      0.670060000000     0.340633333333     0.179666666667     0.458      
O        O      0.631300000000     0.351540000000     0.110213333333     0.458      
O        O      0.620040000000     0.429660000000     0.153053333333     0.458      
O        O      0.656920000000     0.577136666667     0.117073333333     0.458      
O        O      0.645140000000     0.527430000000     0.147193333333     0.458      
O        O      0.767300000000     0.372916666667     0.034100000000     0.458      
O        O      0.731960000000     0.429433333333     0.023333333333     0.458      
O        O      0.770060000000     0.505700000000     0.179666666667     0.458      
O        O      0.731300000000     0.425340000000     0.110213333333     0.458      
O        O      0.720040000000     0.390060000000     0.153053333333     0.458      
O        O      0.756920000000     0.539936666667     0.117073333333     0.458      
O        O      0.745140000000     0.619763333333     0.147193333333     0.458      
O        O      0.667300000000     0.661183333333     0.034100000000     0.458      
O        O      0.631960000000     0.593900000000     0.023333333333     0.458      
O        O      0.670060000000     0.340633333333     0.513000000000     0.458      
O        O      0.631300000000     0.351540000000     0.443546666667     0.458      
O        O      0.620040000000     0.429660000000     0.486386666667     0.458      
O        O      0.656920000000     0.577136666667     0.450406666667     0.458      
O        O      0.645140000000     0.527430000000     0.480526666667     0.458      
O        O      0.767300000000     0.372916666667     0.367433333333     0.458      
O        O      0.731960000000     0.429433333333     0.356666666667     0.458      
O        O      0.770060000000     0.505700000000     0.513000000000     0.458      
O        O      0.731300000000     0.425340000000     0.443546666667     0.458      
O        O      0.720040000000     0.390060000000     0.486386666667     0.458      
O        O      0.756920000000     0.539936666667     0.450406666667     0.458      
O        O      0.745140000000     0.619763333333     0.480526666667     0.458      
O        O      0.667300000000     0.661183333333     0.367433333333     0.458      
O        O      0.631960000000     0.593900000000     0.356666666667     0.458      
O        O      0.670060000000     0.340633333333     0.846333333333     0.458      
O        O      0.631300000000     0.351540000000     0.776880000000     0.458      
O        O      0.620040000000     0.429660000000     0.819720000000     0.458      
O        O      0.656920000000     0.577136666667     0.783740000000     0.458      
O        O      0.645140000000     0.527430000000     0.813860000000     0.458      
O        O      0.767300000000     0.372916666667     0.700766666667     0.458      
O        O      0.731960000000     0.429433333333     0.690000000000     0.458      
O        O      0.770060000000     0.505700000000     0.846333333333     0.458      
O        O      0.731300000000     0.425340000000     0.776880000000     0.458      
O        O      0.720040000000     0.390060000000     0.819720000000     0.458      
O        O      0.756920000000     0.539936666667     0.783740000000     0.458      
O        O      0.745140000000     0.619763333333     0.813860000000     0.458      
O        O      0.667300000000     0.661183333333     0.700766666667     0.458      
O        O      0.631960000000     0.593900000000     0.690000000000     0.458      
O        O      0.670060000000     0.673966666667     0.179666666667     0.458      
O        O      0.631300000000     0.684873333333     0.110213333333     0.458      
O        O      0.620040000000     0.762993333333     0.153053333333     0.458      
O        O      0.656920000000     0.910470000000     0.117073333333     0.458      
O        O      0.645140000000     0.860763333333     0.147193333333     0.458      
O        O      0.767300000000     0.706250000000     0.034100000000     0.458      
O        O      0.731960000000     0.762766666667     0.023333333333     0.458      
O        O      0.770060000000     0.839033333333     0.179666666667     0.458      
O        O      0.731300000000     0.758673333333     0.110213333333     0.458      
O        O      0.720040000000     0.723393333333     0.153053333333     0.458      
O        O      0.756920000000     0.873270000000     0.117073333333     0.458      
O        O      0.745140000000     0.953096666667     0.147193333333     0.458      
O        O      0.667300000000     0.994516666667     0.034100000000     0.458      
O        O      0.631960000000     0.927233333333     0.023333333333     0.458      
O        O      0.670060000000     0.673966666667     0.513000000000     0.458      
O        O      0.631300000000     0.684873333333     0.443546666667     0.458      
O        O      0.620040000000     0.762993333333     0.486386666667     0.458      
O        O      0.656920000000     0.910470000000     0.450406666667     0.458      
O        O      0.645140000000     0.860763333333     0.480526666667     0.458      
O        O      0.767300000000     0.706250000000     0.367433333333     0.458      
O        O      0.731960000000     0.762766666667     0.356666666667     0.458      
O        O      0.770060000000     0.839033333333     0.513000000000     0.458      
O        O      0.731300000000     0.758673333333     0.443546666667     0.458      
O        O      0.720040000000     0.723393333333     0.486386666667     0.458      
O        O      0.756920000000     0.873270000000     0.450406666667     0.458      
O        O      0.745140000000     0.953096666667     0.480526666667     0.458      
O        O      0.667300000000     0.994516666667     0.367433333333     0.458      
O        O      0.631960000000     0.927233333333     0.356666666667     0.458      
O        O      0.670060000000     0.673966666667     0.846333333333     0.458      
O        O      0.631300000000     0.684873333333     0.776880000000     0.458      
O        O      0.620040000000     0.762993333333     0.819720000000     0.458      
O        O      0.656920000000     0.910470000000     0.783740000000     0.458      
O        O      0.645140000000     0.860763333333     0.813860000000     0.458      
O        O      0.767300000000     0.706250000000     0.700766666667     0.458      
O        O      0.731960000000     0.762766666667     0.690000000000     0.458      
O        O      0.770060000000     0.839033333333     0.846333333333     0.458      
O        O      0.731300000000     0.758673333333     0.776880000000     0.458      
O        O      0.720040000000     0.723393333333     0.819720000000     0.458      
O        O      0.756920000000     0.873270000000     0.783740000000     0.458      
O        O      0.745140000000     0.953096666667     0.813860000000     0.458      
O        O      0.667300000000     0.994516666667     0.700766666667     0.458      
O        O      0.631960000000     0.927233333333     0.690000000000     0.458      
O        O      0.870060000000     0.007300000000     0.179666666667     0.458      
O        O      0.831300000000     0.018206666667     0.110213333333     0.458      
O        O      0.820040000000     0.096326666667     0.153053333333     0.458      
O        O      0.856920000000     0.243803333333     0.117073333333     0.458      
O        O      0.845140000000     0.194096666667     0.147193333333     0.458      
O        O      0.967300000000     0.039583333333     0.034100000000     0.458      
O        O      0.931960000000     0.096100000000     0.023333333333     0.458      
O        O      0.970060000000     0.172366666667     0.179666666667     0.458      
O        O      0.931300000000     0.092006666667     0.110213333333     0.458      
O        O      0.920040000000     0.056726666667     0.153053333333     0.458      
O        O      0.956920000000     0.206603333333     0.117073333333     0.458      
O        O      0.945140000000     0.286430000000     0.147193333333     0.458      
O        O      0.867300000000     0.327850000000     0.034100000000     0.458      
O        O      0.831960000000     0.260566666667     0.023333333333     0.458      
O        O      0.870060000000     0.007300000000     0.513000000000     0.458      
O        O      0.831300000000     0.018206666667     0.443546666667     0.458      
O        O      0.820040000000     0.096326666667     0.486386666667     0.458      
O        O      0.856920000000     0.243803333333     0.450406666667     0.458      
O        O      0.845140000000     0.194096666667     0.480526666667     0.458      
O        O      0.967300000000     0.039583333333     0.367433333333     0.458      
O        O      0.931960000000     0.096100000000     0.356666666667     0.458      
O        O      0.970060000000     0.172366666667     0.513000000000     0.458      
O        O      0.931300000000     0.092006666667     0.443546666667     0.458      
O        O      0.920040000000     0.056726666667     0.486386666667     0.458      
O        O      0.956920000000     0.206603333333     0.450406666667     0.458      
O        O      0.945140000000     0.286430000000     0.480526666667     0.458      
O        O      0.867300000000     0.327850000000     0.367433333333     0.458      
O        O      0.831960000000     0.260566666667     0.356666666667     0.458      
O        O      0.870060000000     0.007300000000     0.846333333333     0.458      
O        O      0.831300000000     0.018206666667     0.776880000000     0.458      
O        O      0.820040000000     0.096326666667     0.819720000000     0.458      
O        O      0.856920000000     0.243803333333     0.783740000000     0.458      
O        O      0.845140000000     0.194096666667     0.813860000000     0.458      
O        O      0.967300000000     0.039583333333     0.700766666667     0.458      
O        O      0.931960000000     0.096100000000     0.690000000000     0.458      
O        O      0.970060000000     0.172366666667     0.846333333333     0.458      
O        O      0.931300000000     0.092006666667     0.776880000000     0.458      
O        O      0.920040000000     0.056726666667     0.819720000000     0.458      
O        O      0.956920000000     0.206603333333     0.783740000000     0.458      
O        O      0.945140000000     0.286430000000     0.813860000000     0.458      
O        O      0.867300000000     0.327850000000     0.700766666667     0.458      
O        O      0.831960000000     0.260566666667     0.690000000000     0.458      
O        O      0.870060000000     0.340633333333     0.179666666667     0.458      
O        O      0.831300000000     0.351540000000     0.110213333333     0.458      
O        O      0.820040000000     0.429660000000     0.153053333333     0.458      
O        O      0.856920000000     0.577136666667     0.117073333333     0.458      
O        O      0.845140000000     0.527430000000     0.147193333333     0.458      
O        O      0.967300000000     0.372916666667     0.034100000000     0.458      
O        O      0.931960000000     0.429433333333     0.023333333333     0.458      
O        O      0.970060000000     0.505700000000     0.179666666667     0.458      
O        O      0.931300000000     0.425340000000     0.110213333333     0.458      
O        O      0.920040000000     0.390060000000     0.153053333333     0.458      
O        O      0.956920000000     0.539936666667     0.117073333333     0.458      
O        O      0.945140000000     0.619763333333     0.147193333333     0.458      
O        O      0.867300000000     0.661183333333     0.034100000000     0.458      
O        O      0.831960000000     0.593900000000     0.023333333333     0.458      
O        O      0.870060000000     0.340633333333     0.513000000000     0.458      
O        O      0.831300000000     0.351540000000     0.443546666667     0.458      
O        O      0.820040000000     0.429660000000     0.486386666667     0.458      
O        O      0.856920000000     0.577136666667     0.450406666667     0.458      
O        O      0.845140000000     0.527430000000     0.480526666667     0.458      
O        O      0.967300000000     0.372916666667     0.367433333333     0.458      
O        O      0.931960000000     0.429433333333     0.356666666667     0.458      
O        O      0.970060000000     0.505700000000     0.513000000000     0.458      
O        O      0.931300000000     0.425340000000     0.443546666667     0.458      
O        O      0.920040000000     0.390060000000     0.486386666667     0.458      
O        O      0.956920000000     0.539936666667     0.450406666667     0.458      
O        O      0.945140000000     0.619763333333     0.480526666667     0.458      
O        O      0.867300000000     0.661183333333     0.367433333333     0.458      
O        O      0.831960000000     0.593900000000     0.356666666667     0.458      
O        O      0.870060000000     0.340633333333     0.846333333333     0.458      
O        O      0.831300000000     0.351540000000     0.776880000000     0.458      
O        O      0.820040000000     0.429660000000     0.819720000000     0.458      
O        O      0.856920000000     0.577136666667     0.783740000000     0.458      
O        O      0.845140000000     0.527430000000     0.813860000000     0.458      
O        O      0.967300000000     0.372916666667     0.700766666667     0.458      
O        O      0.931960000000     0.429433333333     0.690000000000     0.458      
O        O      0.970060000000     0.505700000000     0.846333333333     0.458      
O        O      0.931300000000     0.425340000000     0.776880000000     0.458      
O        O      0.920040000000     0.390060000000     0.819720000000     0.458      
O        O      0.956920000000     0.539936666667     0.783740000000     0.458      
O        O      0.945140000000     0.619763333333     0.813860000000     0.458      
O        O      0.867300000000     0.661183333333     0.700766666667     0.458      
O        O      0.831960000000     0.593900000000     0.690000000000     0.458      
O        O      0.870060000000     0.673966666667     0.179666666667     0.458      
O        O      0.831300000000     0.684873333333     0.110213333333     0.458      
O        O      0.820040000000     0.762993333333     0.153053333333     0.458      
O        O      0.856920000000     0.910470000000     0.117073333333     0.458      
O        O      0.845140000000     0.860763333333     0.147193333333     0.458      
O        O      0.967300000000     0.706250000000     0.034100000000     0.458      
O        O      0.931960000000     0.762766666667     0.023333333333     0.458      
O        O      0.970060000000     0.839033333333     0.179666666667     0.458      
O        O      0.931300000000     0.758673333333     0.110213333333     0.458      
O        O      0.920040000000     0.723393333333     0.153053333333     0.458      
O        O      0.956920000000     0.873270000000     0.117073333333     0.458      
O        O      0.945140000000     0.953096666667     0.147193333333     0.458      
O        O      0.867300000000     0.994516666667     0.034100000000     0.458      
O        O      0.831960000000     0.927233333333     0.023333333333     0.458      
O        O      0.870060000000     0.673966666667     0.513000000000     0.458      
O        O      0.831300000000     0.684873333333     0.443546666667     0.458      
O        O      0.820040000000     0.762993333333     0.486386666667     0.458      
O        O      0.856920000000     0.910470000000     0.450406666667     0.458      
O        O      0.845140000000     0.860763333333     0.480526666667     0.458      
O        O      0.967300000000     0.706250000000     0.367433333333     0.458      
O        O      0.931960000000     0.762766666667     0.356666666667     0.458      
O        O      0.970060000000     0.839033333333     0.513000000000     0.458      
O        O      0.931300000000     0.758673333333     0.443546666667     0.458      
O        O      0.920040000000     0.723393333333     0.486386666667     0.458      
O        O      0.956920000000     0.873270000000     0.450406666667     0.458      
O        O      0.945140000000     0.953096666667     0.480526666667     0.458      
O        O      0.867300000000     0.994516666667     0.367433333333     0.458      
O        O      0.831960000000     0.927233333333     0.356666666667     0.458      
O        O      0.870060000000     0.673966666667     0.846333333333     0.458      
O        O      0.831300000000     0.684873333333     0.776880000000     0.458      
O        O      0.820040000000     0.762993333333     0.819720000000     0.458      
O        O      0.856920000000     0.910470000000     0.783740000000     0.458      
O        O      0.845140000000     0.860763333333     0.813860000000     0.458      
O        O      0.967300000000     0.706250000000     0.700766666667     0.458      
O        O      0.931960000000     0.762766666667     0.690000000000     0.458      
O        O      0.970060000000     0.839033333333     0.846333333333     0.458      
O        O      0.931300000000     0.758673333333     0.776880000000     0.458      
O        O      0.920040000000     0.723393333333     0.819720000000     0.458      
O        O      0.956920000000     0.873270000000     0.783740000000     0.458      
O        O      0.945140000000     0.953096666667     0.813860000000     0.458      
O        O      0.867300000000     0.994516666667     0.700766666667     0.458      
O        O      0.831960000000     0.927233333333     0.690000000000     0.458      


