data_XAPCOJ_clean_DDEC

_audit_creation_method RASPA-1.0
_audit_creation_date 2025-9-8
_audit_author_name ''

_cell_length_a    15.1318
_cell_length_b    15.1318
_cell_length_c    12.0523
_cell_angle_alpha 90
_cell_angle_beta  90
_cell_angle_gamma 90
_cell_volume      33115.6

_symmetry_cell_setting          triclinic
_symmetry_space_group_name_Hall 'P 1'
_symmetry_space_group_name_H-M  'P 1'
_symmetry_Int_Tables_number     1

_symmetry_equiv_pos_as_xyz 'x,y,z'

loop_
_atom_site_label
_atom_site_type_symbol
_atom_site_fract_x
_atom_site_fract_y
_atom_site_fract_z
_atom_site_charge
C1       C      0.214785000000     0.270675000000     0.040270000000    -0.020387   
C1       C      0.214785000000     0.270675000000     0.373603333333    -0.020387   
C1       C      0.214785000000     0.270675000000     0.706936666667    -0.020387   
C1       C      0.214785000000     0.770675000000     0.040270000000    -0.020387   
C1       C      0.214785000000     0.770675000000     0.373603333333    -0.020387   
C1       C      0.214785000000     0.770675000000     0.706936666667    -0.020387   
C1       C      0.714785000000     0.270675000000     0.040270000000    -0.020387   
C1       C      0.714785000000     0.270675000000     0.373603333333    -0.020387   
C1       C      0.714785000000     0.270675000000     0.706936666667    -0.020387   
C1       C      0.714785000000     0.770675000000     0.040270000000    -0.020387   
C1       C      0.714785000000     0.770675000000     0.373603333333    -0.020387   
C1       C      0.714785000000     0.770675000000     0.706936666667    -0.020387   
C2       C      0.035215000000     0.270675000000     0.209730000000    -0.171301   
C2       C      0.035215000000     0.270675000000     0.543063333333    -0.171301   
C2       C      0.035215000000     0.270675000000     0.876396666667    -0.171301   
C2       C      0.035215000000     0.770675000000     0.209730000000    -0.171301   
C2       C      0.035215000000     0.770675000000     0.543063333333    -0.171301   
C2       C      0.035215000000     0.770675000000     0.876396666667    -0.171301   
C2       C      0.535215000000     0.270675000000     0.209730000000    -0.171301   
C2       C      0.535215000000     0.270675000000     0.543063333333    -0.171301   
C2       C      0.535215000000     0.270675000000     0.876396666667    -0.171301   
C2       C      0.535215000000     0.770675000000     0.209730000000    -0.171301   
C2       C      0.535215000000     0.770675000000     0.543063333333    -0.171301   
C2       C      0.535215000000     0.770675000000     0.876396666667    -0.171301   
C3       C      0.465390000000     0.020000000000     0.246700000000     0.082216   
C3       C      0.465390000000     0.020000000000     0.580033333333     0.082216   
C3       C      0.465390000000     0.020000000000     0.913366666667     0.082216   
C3       C      0.465390000000     0.520000000000     0.246700000000     0.082216   
C3       C      0.465390000000     0.520000000000     0.580033333333     0.082216   
C3       C      0.465390000000     0.520000000000     0.913366666667     0.082216   
C3       C      0.965390000000     0.020000000000     0.246700000000     0.082216   
C3       C      0.965390000000     0.020000000000     0.580033333333     0.082216   
C3       C      0.965390000000     0.020000000000     0.913366666667     0.082216   
C3       C      0.965390000000     0.520000000000     0.246700000000     0.082216   
C3       C      0.965390000000     0.520000000000     0.580033333333     0.082216   
C3       C      0.965390000000     0.520000000000     0.913366666667     0.082216   
C4       C      0.000000000000     0.000000000000     0.145293333333    -0.171276   
C4       C      0.000000000000     0.000000000000     0.478626666667    -0.171276   
C4       C      0.000000000000     0.000000000000     0.811960000000    -0.171276   
C4       C      0.000000000000     0.500000000000     0.145293333333    -0.171276   
C4       C      0.000000000000     0.500000000000     0.478626666667    -0.171276   
C4       C      0.000000000000     0.500000000000     0.811960000000    -0.171276   
C4       C      0.500000000000     0.000000000000     0.145293333333    -0.171276   
C4       C      0.500000000000     0.000000000000     0.478626666667    -0.171276   
C4       C      0.500000000000     0.000000000000     0.811960000000    -0.171276   
C4       C      0.500000000000     0.500000000000     0.145293333333    -0.171276   
C4       C      0.500000000000     0.500000000000     0.478626666667    -0.171276   
C4       C      0.500000000000     0.500000000000     0.811960000000    -0.171276   
C5       C      0.000000000000     0.000000000000     0.067946666667    -0.02036    
C5       C      0.000000000000     0.000000000000     0.401280000000    -0.02036    
C5       C      0.000000000000     0.000000000000     0.734613333333    -0.02036    
C5       C      0.000000000000     0.500000000000     0.067946666667    -0.02036    
C5       C      0.000000000000     0.500000000000     0.401280000000    -0.02036    
C5       C      0.000000000000     0.500000000000     0.734613333333    -0.02036    
C5       C      0.500000000000     0.000000000000     0.067946666667    -0.02036    
C5       C      0.500000000000     0.000000000000     0.401280000000    -0.02036    
C5       C      0.500000000000     0.000000000000     0.734613333333    -0.02036    
C5       C      0.500000000000     0.500000000000     0.067946666667    -0.02036    
C5       C      0.500000000000     0.500000000000     0.401280000000    -0.02036    
C5       C      0.500000000000     0.500000000000     0.734613333333    -0.02036    
C6       C      0.430125000000     0.203480000000     0.150596666667     0.63301    
C6       C      0.430125000000     0.203480000000     0.483930000000     0.63301    
C6       C      0.430125000000     0.203480000000     0.817263333333     0.63301    
C6       C      0.430125000000     0.703480000000     0.150596666667     0.63301    
C6       C      0.430125000000     0.703480000000     0.483930000000     0.63301    
C6       C      0.430125000000     0.703480000000     0.817263333333     0.63301    
C6       C      0.930125000000     0.203480000000     0.150596666667     0.63301    
C6       C      0.930125000000     0.203480000000     0.483930000000     0.63301    
C6       C      0.930125000000     0.203480000000     0.817263333333     0.63301    
C6       C      0.930125000000     0.703480000000     0.150596666667     0.63301    
C6       C      0.930125000000     0.703480000000     0.483930000000     0.63301    
C6       C      0.930125000000     0.703480000000     0.817263333333     0.63301    
C7       C      0.465390000000     0.230000000000     0.169966666667    -0.02036    
C7       C      0.465390000000     0.230000000000     0.503300000000    -0.02036    
C7       C      0.465390000000     0.230000000000     0.836633333333    -0.02036    
C7       C      0.465390000000     0.730000000000     0.169966666667    -0.02036    
C7       C      0.465390000000     0.730000000000     0.503300000000    -0.02036    
C7       C      0.465390000000     0.730000000000     0.836633333333    -0.02036    
C7       C      0.965390000000     0.230000000000     0.169966666667    -0.02036    
C7       C      0.965390000000     0.230000000000     0.503300000000    -0.02036    
C7       C      0.965390000000     0.230000000000     0.836633333333    -0.02036    
C7       C      0.965390000000     0.730000000000     0.169966666667    -0.02036    
C7       C      0.965390000000     0.730000000000     0.503300000000    -0.02036    
C7       C      0.965390000000     0.730000000000     0.836633333333    -0.02036    
C8       C      0.464785000000     0.229325000000     0.209730000000    -0.171278   
C8       C      0.464785000000     0.229325000000     0.543063333333    -0.171278   
C8       C      0.464785000000     0.229325000000     0.876396666667    -0.171278   
C8       C      0.464785000000     0.729325000000     0.209730000000    -0.171278   
C8       C      0.464785000000     0.729325000000     0.543063333333    -0.171278   
C8       C      0.464785000000     0.729325000000     0.876396666667    -0.171278   
C8       C      0.964785000000     0.229325000000     0.209730000000    -0.171278   
C8       C      0.964785000000     0.229325000000     0.543063333333    -0.171278   
C8       C      0.964785000000     0.229325000000     0.876396666667    -0.171278   
C8       C      0.964785000000     0.729325000000     0.209730000000    -0.171278   
C8       C      0.964785000000     0.729325000000     0.543063333333    -0.171278   
C8       C      0.964785000000     0.729325000000     0.876396666667    -0.171278   
C9       C      0.215390000000     0.270000000000     0.080033333333     0.633011   
C9       C      0.215390000000     0.270000000000     0.413366666667     0.633011   
C9       C      0.215390000000     0.270000000000     0.746700000000     0.633011   
C9       C      0.215390000000     0.770000000000     0.080033333333     0.633011   
C9       C      0.215390000000     0.770000000000     0.413366666667     0.633011   
C9       C      0.215390000000     0.770000000000     0.746700000000     0.633011   
C9       C      0.715390000000     0.270000000000     0.080033333333     0.633011   
C9       C      0.715390000000     0.270000000000     0.413366666667     0.633011   
C9       C      0.715390000000     0.270000000000     0.746700000000     0.633011   
C9       C      0.715390000000     0.770000000000     0.080033333333     0.633011   
C9       C      0.715390000000     0.770000000000     0.413366666667     0.633011   
C9       C      0.715390000000     0.770000000000     0.746700000000     0.633011   
C10      C      0.250000000000     0.250000000000     0.311960000000     0.63301    
C10      C      0.250000000000     0.250000000000     0.645293333333     0.63301    
C10      C      0.250000000000     0.250000000000     0.978626666667     0.63301    
C10      C      0.250000000000     0.750000000000     0.311960000000     0.63301    
C10      C      0.250000000000     0.750000000000     0.645293333333     0.63301    
C10      C      0.250000000000     0.750000000000     0.978626666667     0.63301    
C10      C      0.750000000000     0.250000000000     0.311960000000     0.63301    
C10      C      0.750000000000     0.250000000000     0.645293333333     0.63301    
C10      C      0.750000000000     0.250000000000     0.978626666667     0.63301    
C10      C      0.750000000000     0.750000000000     0.311960000000     0.63301    
C10      C      0.750000000000     0.750000000000     0.645293333333     0.63301    
C10      C      0.750000000000     0.750000000000     0.978626666667     0.63301    
C11      C      0.250000000000     0.250000000000     0.234613333333    -0.020358   
C11      C      0.250000000000     0.250000000000     0.567946666667    -0.020358   
C11      C      0.250000000000     0.250000000000     0.901280000000    -0.020358   
C11      C      0.250000000000     0.750000000000     0.234613333333    -0.020358   
C11      C      0.250000000000     0.750000000000     0.567946666667    -0.020358   
C11      C      0.250000000000     0.750000000000     0.901280000000    -0.020358   
C11      C      0.750000000000     0.250000000000     0.234613333333    -0.020358   
C11      C      0.750000000000     0.250000000000     0.567946666667    -0.020358   
C11      C      0.750000000000     0.250000000000     0.901280000000    -0.020358   
C11      C      0.750000000000     0.750000000000     0.234613333333    -0.020358   
C11      C      0.750000000000     0.750000000000     0.567946666667    -0.020358   
C11      C      0.750000000000     0.750000000000     0.901280000000    -0.020358   
C12      C      0.180125000000     0.453480000000     0.317263333333     0.633044   
C12      C      0.180125000000     0.453480000000     0.650596666667     0.633044   
C12      C      0.180125000000     0.453480000000     0.983930000000     0.633044   
C12      C      0.180125000000     0.953480000000     0.317263333333     0.633044   
C12      C      0.180125000000     0.953480000000     0.650596666667     0.633044   
C12      C      0.180125000000     0.953480000000     0.983930000000     0.633044   
C12      C      0.680125000000     0.453480000000     0.317263333333     0.633044   
C12      C      0.680125000000     0.453480000000     0.650596666667     0.633044   
C12      C      0.680125000000     0.453480000000     0.983930000000     0.633044   
C12      C      0.680125000000     0.953480000000     0.317263333333     0.633044   
C12      C      0.680125000000     0.953480000000     0.650596666667     0.633044   
C12      C      0.680125000000     0.953480000000     0.983930000000     0.633044   
C13      C      0.215390000000     0.480000000000     0.003300000000    -0.020389   
C13      C      0.215390000000     0.480000000000     0.336633333333    -0.020389   
C13      C      0.215390000000     0.480000000000     0.669966666667    -0.020389   
C13      C      0.215390000000     0.980000000000     0.003300000000    -0.020389   
C13      C      0.215390000000     0.980000000000     0.336633333333    -0.020389   
C13      C      0.215390000000     0.980000000000     0.669966666667    -0.020389   
C13      C      0.715390000000     0.480000000000     0.003300000000    -0.020389   
C13      C      0.715390000000     0.480000000000     0.336633333333    -0.020389   
C13      C      0.715390000000     0.480000000000     0.669966666667    -0.020389   
C13      C      0.715390000000     0.980000000000     0.003300000000    -0.020389   
C13      C      0.715390000000     0.980000000000     0.336633333333    -0.020389   
C13      C      0.715390000000     0.980000000000     0.669966666667    -0.020389   
C14      C      0.214785000000     0.479325000000     0.043063333333    -0.02036    
C14      C      0.214785000000     0.479325000000     0.376396666667    -0.02036    
C14      C      0.214785000000     0.479325000000     0.709730000000    -0.02036    
C14      C      0.214785000000     0.979325000000     0.043063333333    -0.02036    
C14      C      0.214785000000     0.979325000000     0.376396666667    -0.02036    
C14      C      0.214785000000     0.979325000000     0.709730000000    -0.02036    
C14      C      0.714785000000     0.479325000000     0.043063333333    -0.02036    
C14      C      0.714785000000     0.479325000000     0.376396666667    -0.02036    
C14      C      0.714785000000     0.479325000000     0.709730000000    -0.02036    
C14      C      0.714785000000     0.979325000000     0.043063333333    -0.02036    
C14      C      0.714785000000     0.979325000000     0.376396666667    -0.02036    
C14      C      0.714785000000     0.979325000000     0.709730000000    -0.02036    
C15      C      0.430125000000     0.046520000000     0.266070000000    -0.171302   
C15      C      0.430125000000     0.046520000000     0.599403333333    -0.171302   
C15      C      0.430125000000     0.046520000000     0.932736666667    -0.171302   
C15      C      0.430125000000     0.546520000000     0.266070000000    -0.171302   
C15      C      0.430125000000     0.546520000000     0.599403333333    -0.171302   
C15      C      0.430125000000     0.546520000000     0.932736666667    -0.171302   
C15      C      0.930125000000     0.046520000000     0.266070000000    -0.171302   
C15      C      0.930125000000     0.046520000000     0.599403333333    -0.171302   
C15      C      0.930125000000     0.046520000000     0.932736666667    -0.171302   
C15      C      0.930125000000     0.546520000000     0.266070000000    -0.171302   
C15      C      0.930125000000     0.546520000000     0.599403333333    -0.171302   
C15      C      0.930125000000     0.546520000000     0.932736666667    -0.171302   
C16      C      0.285215000000     0.229325000000     0.040270000000     0.633011   
C16      C      0.285215000000     0.229325000000     0.373603333333     0.633011   
C16      C      0.285215000000     0.229325000000     0.706936666667     0.633011   
C16      C      0.285215000000     0.729325000000     0.040270000000     0.633011   
C16      C      0.285215000000     0.729325000000     0.373603333333     0.633011   
C16      C      0.285215000000     0.729325000000     0.706936666667     0.633011   
C16      C      0.785215000000     0.229325000000     0.040270000000     0.633011   
C16      C      0.785215000000     0.229325000000     0.373603333333     0.633011   
C16      C      0.785215000000     0.229325000000     0.706936666667     0.633011   
C16      C      0.785215000000     0.729325000000     0.040270000000     0.633011   
C16      C      0.785215000000     0.729325000000     0.373603333333     0.633011   
C16      C      0.785215000000     0.729325000000     0.706936666667     0.633011   
C17      C      0.453480000000     0.180125000000     0.016070000000     0.082217   
C17      C      0.453480000000     0.180125000000     0.349403333333     0.082217   
C17      C      0.453480000000     0.180125000000     0.682736666667     0.082217   
C17      C      0.453480000000     0.680125000000     0.016070000000     0.082217   
C17      C      0.453480000000     0.680125000000     0.349403333333     0.082217   
C17      C      0.453480000000     0.680125000000     0.682736666667     0.082217   
C17      C      0.953480000000     0.180125000000     0.016070000000     0.082217   
C17      C      0.953480000000     0.180125000000     0.349403333333     0.082217   
C17      C      0.953480000000     0.180125000000     0.682736666667     0.082217   
C17      C      0.953480000000     0.680125000000     0.016070000000     0.082217   
C17      C      0.953480000000     0.680125000000     0.349403333333     0.082217   
C17      C      0.953480000000     0.680125000000     0.682736666667     0.082217   
C18      C      0.480000000000     0.215390000000     0.330033333333    -0.120645   
C18      C      0.480000000000     0.215390000000     0.663366666667    -0.120645   
C18      C      0.480000000000     0.215390000000     0.996700000000    -0.120645   
C18      C      0.480000000000     0.715390000000     0.330033333333    -0.120645   
C18      C      0.480000000000     0.715390000000     0.663366666667    -0.120645   
C18      C      0.480000000000     0.715390000000     0.996700000000    -0.120645   
C18      C      0.980000000000     0.215390000000     0.330033333333    -0.120645   
C18      C      0.980000000000     0.215390000000     0.663366666667    -0.120645   
C18      C      0.980000000000     0.215390000000     0.996700000000    -0.120645   
C18      C      0.980000000000     0.715390000000     0.330033333333    -0.120645   
C18      C      0.980000000000     0.715390000000     0.663366666667    -0.120645   
C18      C      0.980000000000     0.715390000000     0.996700000000    -0.120645   
C19      C      0.479325000000     0.214785000000     0.290270000000     0.633045   
C19      C      0.479325000000     0.214785000000     0.623603333333     0.633045   
C19      C      0.479325000000     0.214785000000     0.956936666667     0.633045   
C19      C      0.479325000000     0.714785000000     0.290270000000     0.633045   
C19      C      0.479325000000     0.714785000000     0.623603333333     0.633045   
C19      C      0.479325000000     0.714785000000     0.956936666667     0.633045   
C19      C      0.979325000000     0.214785000000     0.290270000000     0.633045   
C19      C      0.979325000000     0.214785000000     0.623603333333     0.633045   
C19      C      0.979325000000     0.214785000000     0.956936666667     0.633045   
C19      C      0.979325000000     0.714785000000     0.290270000000     0.633045   
C19      C      0.979325000000     0.714785000000     0.623603333333     0.633045   
C19      C      0.979325000000     0.714785000000     0.956936666667     0.633045   
C20      C      0.250000000000     0.250000000000     0.021373333333    -0.020387   
C20      C      0.250000000000     0.250000000000     0.354706666667    -0.020387   
C20      C      0.250000000000     0.250000000000     0.688040000000    -0.020387   
C20      C      0.250000000000     0.750000000000     0.021373333333    -0.020387   
C20      C      0.250000000000     0.750000000000     0.354706666667    -0.020387   
C20      C      0.250000000000     0.750000000000     0.688040000000    -0.020387   
C20      C      0.750000000000     0.250000000000     0.021373333333    -0.020387   
C20      C      0.750000000000     0.250000000000     0.354706666667    -0.020387   
C20      C      0.750000000000     0.250000000000     0.688040000000    -0.020387   
C20      C      0.750000000000     0.750000000000     0.021373333333    -0.020387   
C20      C      0.750000000000     0.750000000000     0.354706666667    -0.020387   
C20      C      0.750000000000     0.750000000000     0.688040000000    -0.020387   
C21      C      0.020675000000     0.285215000000     0.290270000000    -0.171304   
C21      C      0.020675000000     0.285215000000     0.623603333333    -0.171304   
C21      C      0.020675000000     0.285215000000     0.956936666667    -0.171304   
C21      C      0.020675000000     0.785215000000     0.290270000000    -0.171304   
C21      C      0.020675000000     0.785215000000     0.623603333333    -0.171304   
C21      C      0.020675000000     0.785215000000     0.956936666667    -0.171304   
C21      C      0.520675000000     0.285215000000     0.290270000000    -0.171304   
C21      C      0.520675000000     0.285215000000     0.623603333333    -0.171304   
C21      C      0.520675000000     0.285215000000     0.956936666667    -0.171304   
C21      C      0.520675000000     0.785215000000     0.290270000000    -0.171304   
C21      C      0.520675000000     0.785215000000     0.623603333333    -0.171304   
C21      C      0.520675000000     0.785215000000     0.956936666667    -0.171304   
C22      C      0.020000000000     0.284610000000     0.330033333333     0.63301    
C22      C      0.020000000000     0.284610000000     0.663366666667     0.63301    
C22      C      0.020000000000     0.284610000000     0.996700000000     0.63301    
C22      C      0.020000000000     0.784610000000     0.330033333333     0.63301    
C22      C      0.020000000000     0.784610000000     0.663366666667     0.63301    
C22      C      0.020000000000     0.784610000000     0.996700000000     0.63301    
C22      C      0.520000000000     0.284610000000     0.330033333333     0.63301    
C22      C      0.520000000000     0.284610000000     0.663366666667     0.63301    
C22      C      0.520000000000     0.284610000000     0.996700000000     0.63301    
C22      C      0.520000000000     0.784610000000     0.330033333333     0.63301    
C22      C      0.520000000000     0.784610000000     0.663366666667     0.63301    
C22      C      0.520000000000     0.784610000000     0.996700000000     0.63301    
C23      C      0.203480000000     0.430125000000     0.182736666667     0.082219   
C23      C      0.203480000000     0.430125000000     0.516070000000     0.082219   
C23      C      0.203480000000     0.430125000000     0.849403333333     0.082219   
C23      C      0.203480000000     0.930125000000     0.182736666667     0.082219   
C23      C      0.203480000000     0.930125000000     0.516070000000     0.082219   
C23      C      0.203480000000     0.930125000000     0.849403333333     0.082219   
C23      C      0.703480000000     0.430125000000     0.182736666667     0.082219   
C23      C      0.703480000000     0.430125000000     0.516070000000     0.082219   
C23      C      0.703480000000     0.430125000000     0.849403333333     0.082219   
C23      C      0.703480000000     0.930125000000     0.182736666667     0.082219   
C23      C      0.703480000000     0.930125000000     0.516070000000     0.082219   
C23      C      0.703480000000     0.930125000000     0.849403333333     0.082219   
C24      C      0.230000000000     0.465390000000     0.163366666667    -0.120644   
C24      C      0.230000000000     0.465390000000     0.496700000000    -0.120644   
C24      C      0.230000000000     0.465390000000     0.830033333333    -0.120644   
C24      C      0.230000000000     0.965390000000     0.163366666667    -0.120644   
C24      C      0.230000000000     0.965390000000     0.496700000000    -0.120644   
C24      C      0.230000000000     0.965390000000     0.830033333333    -0.120644   
C24      C      0.730000000000     0.465390000000     0.163366666667    -0.120644   
C24      C      0.730000000000     0.465390000000     0.496700000000    -0.120644   
C24      C      0.730000000000     0.465390000000     0.830033333333    -0.120644   
C24      C      0.730000000000     0.965390000000     0.163366666667    -0.120644   
C24      C      0.730000000000     0.965390000000     0.496700000000    -0.120644   
C24      C      0.730000000000     0.965390000000     0.830033333333    -0.120644   
C25      C      0.229325000000     0.464785000000     0.123603333333     0.63301    
C25      C      0.229325000000     0.464785000000     0.456936666667     0.63301    
C25      C      0.229325000000     0.464785000000     0.790270000000     0.63301    
C25      C      0.229325000000     0.964785000000     0.123603333333     0.63301    
C25      C      0.229325000000     0.964785000000     0.456936666667     0.63301    
C25      C      0.229325000000     0.964785000000     0.790270000000     0.63301    
C25      C      0.729325000000     0.464785000000     0.123603333333     0.63301    
C25      C      0.729325000000     0.464785000000     0.456936666667     0.63301    
C25      C      0.729325000000     0.464785000000     0.790270000000     0.63301    
C25      C      0.729325000000     0.964785000000     0.123603333333     0.63301    
C25      C      0.729325000000     0.964785000000     0.456936666667     0.63301    
C25      C      0.729325000000     0.964785000000     0.790270000000     0.63301    
C26      C      0.046520000000     0.319875000000     0.016070000000    -0.020356   
C26      C      0.046520000000     0.319875000000     0.349403333333    -0.020356   
C26      C      0.046520000000     0.319875000000     0.682736666667    -0.020356   
C26      C      0.046520000000     0.819875000000     0.016070000000    -0.020356   
C26      C      0.046520000000     0.819875000000     0.349403333333    -0.020356   
C26      C      0.046520000000     0.819875000000     0.682736666667    -0.020356   
C26      C      0.546520000000     0.319875000000     0.016070000000    -0.020356   
C26      C      0.546520000000     0.319875000000     0.349403333333    -0.020356   
C26      C      0.546520000000     0.319875000000     0.682736666667    -0.020356   
C26      C      0.546520000000     0.819875000000     0.016070000000    -0.020356   
C26      C      0.546520000000     0.819875000000     0.349403333333    -0.020356   
C26      C      0.546520000000     0.819875000000     0.682736666667    -0.020356   
C27      C      0.069875000000     0.453480000000     0.266070000000    -0.171279   
C27      C      0.069875000000     0.453480000000     0.599403333333    -0.171279   
C27      C      0.069875000000     0.453480000000     0.932736666667    -0.171279   
C27      C      0.069875000000     0.953480000000     0.266070000000    -0.171279   
C27      C      0.069875000000     0.953480000000     0.599403333333    -0.171279   
C27      C      0.069875000000     0.953480000000     0.932736666667    -0.171279   
C27      C      0.569875000000     0.453480000000     0.266070000000    -0.171279   
C27      C      0.569875000000     0.453480000000     0.599403333333    -0.171279   
C27      C      0.569875000000     0.453480000000     0.932736666667    -0.171279   
C27      C      0.569875000000     0.953480000000     0.266070000000    -0.171279   
C27      C      0.569875000000     0.953480000000     0.599403333333    -0.171279   
C27      C      0.569875000000     0.953480000000     0.932736666667    -0.171279   
C28      C      0.034610000000     0.480000000000     0.246700000000     0.082216   
C28      C      0.034610000000     0.480000000000     0.580033333333     0.082216   
C28      C      0.034610000000     0.480000000000     0.913366666667     0.082216   
C28      C      0.034610000000     0.980000000000     0.246700000000     0.082216   
C28      C      0.034610000000     0.980000000000     0.580033333333     0.082216   
C28      C      0.034610000000     0.980000000000     0.913366666667     0.082216   
C28      C      0.534610000000     0.480000000000     0.246700000000     0.082216   
C28      C      0.534610000000     0.480000000000     0.580033333333     0.082216   
C28      C      0.534610000000     0.480000000000     0.913366666667     0.082216   
C28      C      0.534610000000     0.980000000000     0.246700000000     0.082216   
C28      C      0.534610000000     0.980000000000     0.580033333333     0.082216   
C28      C      0.534610000000     0.980000000000     0.913366666667     0.082216   
C29      C      0.296520000000     0.069875000000     0.182736666667    -0.120646   
C29      C      0.296520000000     0.069875000000     0.516070000000    -0.120646   
C29      C      0.296520000000     0.069875000000     0.849403333333    -0.120646   
C29      C      0.296520000000     0.569875000000     0.182736666667    -0.120646   
C29      C      0.296520000000     0.569875000000     0.516070000000    -0.120646   
C29      C      0.296520000000     0.569875000000     0.849403333333    -0.120646   
C29      C      0.796520000000     0.069875000000     0.182736666667    -0.120646   
C29      C      0.796520000000     0.069875000000     0.516070000000    -0.120646   
C29      C      0.796520000000     0.069875000000     0.849403333333    -0.120646   
C29      C      0.796520000000     0.569875000000     0.182736666667    -0.120646   
C29      C      0.796520000000     0.569875000000     0.516070000000    -0.120646   
C29      C      0.796520000000     0.569875000000     0.849403333333    -0.120646   
C30      C      0.270000000000     0.034610000000     0.163366666667     0.633048   
C30      C      0.270000000000     0.034610000000     0.496700000000     0.633048   
C30      C      0.270000000000     0.034610000000     0.830033333333     0.633048   
C30      C      0.270000000000     0.534610000000     0.163366666667     0.633048   
C30      C      0.270000000000     0.534610000000     0.496700000000     0.633048   
C30      C      0.270000000000     0.534610000000     0.830033333333     0.633048   
C30      C      0.770000000000     0.034610000000     0.163366666667     0.633048   
C30      C      0.770000000000     0.034610000000     0.496700000000     0.633048   
C30      C      0.770000000000     0.034610000000     0.830033333333     0.633048   
C30      C      0.770000000000     0.534610000000     0.163366666667     0.633048   
C30      C      0.770000000000     0.534610000000     0.496700000000     0.633048   
C30      C      0.770000000000     0.534610000000     0.830033333333     0.633048   
C31      C      0.034610000000     0.270000000000     0.169966666667    -0.120648   
C31      C      0.034610000000     0.270000000000     0.503300000000    -0.120648   
C31      C      0.034610000000     0.270000000000     0.836633333333    -0.120648   
C31      C      0.034610000000     0.770000000000     0.169966666667    -0.120648   
C31      C      0.034610000000     0.770000000000     0.503300000000    -0.120648   
C31      C      0.034610000000     0.770000000000     0.836633333333    -0.120648   
C31      C      0.534610000000     0.270000000000     0.169966666667    -0.120648   
C31      C      0.534610000000     0.270000000000     0.503300000000    -0.120648   
C31      C      0.534610000000     0.270000000000     0.836633333333    -0.120648   
C31      C      0.534610000000     0.770000000000     0.169966666667    -0.120648   
C31      C      0.534610000000     0.770000000000     0.503300000000    -0.120648   
C31      C      0.534610000000     0.770000000000     0.836633333333    -0.120648   
C32      C      0.270675000000     0.035215000000     0.123603333333    -0.171279   
C32      C      0.270675000000     0.035215000000     0.456936666667    -0.171279   
C32      C      0.270675000000     0.035215000000     0.790270000000    -0.171279   
C32      C      0.270675000000     0.535215000000     0.123603333333    -0.171279   
C32      C      0.270675000000     0.535215000000     0.456936666667    -0.171279   
C32      C      0.270675000000     0.535215000000     0.790270000000    -0.171279   
C32      C      0.770675000000     0.035215000000     0.123603333333    -0.171279   
C32      C      0.770675000000     0.035215000000     0.456936666667    -0.171279   
C32      C      0.770675000000     0.035215000000     0.790270000000    -0.171279   
C32      C      0.770675000000     0.535215000000     0.123603333333    -0.171279   
C32      C      0.770675000000     0.535215000000     0.456936666667    -0.171279   
C32      C      0.770675000000     0.535215000000     0.790270000000    -0.171279   
C33      C      0.069875000000     0.296520000000     0.150596666667    -0.171302   
C33      C      0.069875000000     0.296520000000     0.483930000000    -0.171302   
C33      C      0.069875000000     0.296520000000     0.817263333333    -0.171302   
C33      C      0.069875000000     0.796520000000     0.150596666667    -0.171302   
C33      C      0.069875000000     0.796520000000     0.483930000000    -0.171302   
C33      C      0.069875000000     0.796520000000     0.817263333333    -0.171302   
C33      C      0.569875000000     0.296520000000     0.150596666667    -0.171302   
C33      C      0.569875000000     0.296520000000     0.483930000000    -0.171302   
C33      C      0.569875000000     0.296520000000     0.817263333333    -0.171302   
C33      C      0.569875000000     0.796520000000     0.150596666667    -0.171302   
C33      C      0.569875000000     0.796520000000     0.483930000000    -0.171302   
C33      C      0.569875000000     0.796520000000     0.817263333333    -0.171302   
C34      C      0.250000000000     0.000000000000     0.061960000000    -0.171304   
C34      C      0.250000000000     0.000000000000     0.395293333333    -0.171304   
C34      C      0.250000000000     0.000000000000     0.728626666667    -0.171304   
C34      C      0.250000000000     0.500000000000     0.061960000000    -0.171304   
C34      C      0.250000000000     0.500000000000     0.395293333333    -0.171304   
C34      C      0.250000000000     0.500000000000     0.728626666667    -0.171304   
C34      C      0.750000000000     0.000000000000     0.061960000000    -0.171304   
C34      C      0.750000000000     0.000000000000     0.395293333333    -0.171304   
C34      C      0.750000000000     0.000000000000     0.728626666667    -0.171304   
C34      C      0.750000000000     0.500000000000     0.061960000000    -0.171304   
C34      C      0.750000000000     0.500000000000     0.395293333333    -0.171304   
C34      C      0.750000000000     0.500000000000     0.728626666667    -0.171304   
C35      C      0.250000000000     0.250000000000     0.098720000000    -0.171304   
C35      C      0.250000000000     0.250000000000     0.432053333333    -0.171304   
C35      C      0.250000000000     0.250000000000     0.765386666667    -0.171304   
C35      C      0.250000000000     0.750000000000     0.098720000000    -0.171304   
C35      C      0.250000000000     0.750000000000     0.432053333333    -0.171304   
C35      C      0.250000000000     0.750000000000     0.765386666667    -0.171304   
C35      C      0.750000000000     0.250000000000     0.098720000000    -0.171304   
C35      C      0.750000000000     0.250000000000     0.432053333333    -0.171304   
C35      C      0.750000000000     0.250000000000     0.765386666667    -0.171304   
C35      C      0.750000000000     0.750000000000     0.098720000000    -0.171304   
C35      C      0.750000000000     0.750000000000     0.432053333333    -0.171304   
C35      C      0.750000000000     0.750000000000     0.765386666667    -0.171304   
C36      C      0.296520000000     0.180125000000     0.233930000000    -0.020389   
C36      C      0.296520000000     0.180125000000     0.567263333333    -0.020389   
C36      C      0.296520000000     0.180125000000     0.900596666667    -0.020389   
C36      C      0.296520000000     0.680125000000     0.233930000000    -0.020389   
C36      C      0.296520000000     0.680125000000     0.567263333333    -0.020389   
C36      C      0.296520000000     0.680125000000     0.900596666667    -0.020389   
C36      C      0.796520000000     0.180125000000     0.233930000000    -0.020389   
C36      C      0.796520000000     0.180125000000     0.567263333333    -0.020389   
C36      C      0.796520000000     0.180125000000     0.900596666667    -0.020389   
C36      C      0.796520000000     0.680125000000     0.233930000000    -0.020389   
C36      C      0.796520000000     0.680125000000     0.567263333333    -0.020389   
C36      C      0.796520000000     0.680125000000     0.900596666667    -0.020389   
C37      C      0.270000000000     0.215390000000     0.253300000000     0.633045   
C37      C      0.270000000000     0.215390000000     0.586633333333     0.633045   
C37      C      0.270000000000     0.215390000000     0.919966666667     0.633045   
C37      C      0.270000000000     0.715390000000     0.253300000000     0.633045   
C37      C      0.270000000000     0.715390000000     0.586633333333     0.633045   
C37      C      0.270000000000     0.715390000000     0.919966666667     0.633045   
C37      C      0.770000000000     0.215390000000     0.253300000000     0.633045   
C37      C      0.770000000000     0.215390000000     0.586633333333     0.633045   
C37      C      0.770000000000     0.215390000000     0.919966666667     0.633045   
C37      C      0.770000000000     0.715390000000     0.253300000000     0.633045   
C37      C      0.770000000000     0.715390000000     0.586633333333     0.633045   
C37      C      0.770000000000     0.715390000000     0.919966666667     0.633045   
C38      C      0.270675000000     0.214785000000     0.293063333333    -0.120645   
C38      C      0.270675000000     0.214785000000     0.626396666667    -0.120645   
C38      C      0.270675000000     0.214785000000     0.959730000000    -0.120645   
C38      C      0.270675000000     0.714785000000     0.293063333333    -0.120645   
C38      C      0.270675000000     0.714785000000     0.626396666667    -0.120645   
C38      C      0.270675000000     0.714785000000     0.959730000000    -0.120645   
C38      C      0.770675000000     0.214785000000     0.293063333333    -0.120645   
C38      C      0.770675000000     0.214785000000     0.626396666667    -0.120645   
C38      C      0.770675000000     0.214785000000     0.959730000000    -0.120645   
C38      C      0.770675000000     0.714785000000     0.293063333333    -0.120645   
C38      C      0.770675000000     0.714785000000     0.626396666667    -0.120645   
C38      C      0.770675000000     0.714785000000     0.959730000000    -0.120645   
C39      C      0.180125000000     0.296520000000     0.099403333333     0.082216   
C39      C      0.180125000000     0.296520000000     0.432736666667     0.082216   
C39      C      0.180125000000     0.296520000000     0.766070000000     0.082216   
C39      C      0.180125000000     0.796520000000     0.099403333333     0.082216   
C39      C      0.180125000000     0.796520000000     0.432736666667     0.082216   
C39      C      0.180125000000     0.796520000000     0.766070000000     0.082216   
C39      C      0.680125000000     0.296520000000     0.099403333333     0.082216   
C39      C      0.680125000000     0.296520000000     0.432736666667     0.082216   
C39      C      0.680125000000     0.296520000000     0.766070000000     0.082216   
C39      C      0.680125000000     0.796520000000     0.099403333333     0.082216   
C39      C      0.680125000000     0.796520000000     0.432736666667     0.082216   
C39      C      0.680125000000     0.796520000000     0.766070000000     0.082216   
C40      C      0.000000000000     0.000000000000     0.188040000000    -0.020387   
C40      C      0.000000000000     0.000000000000     0.521373333333    -0.020387   
C40      C      0.000000000000     0.000000000000     0.854706666667    -0.020387   
C40      C      0.000000000000     0.500000000000     0.188040000000    -0.020387   
C40      C      0.000000000000     0.500000000000     0.521373333333    -0.020387   
C40      C      0.000000000000     0.500000000000     0.854706666667    -0.020387   
C40      C      0.500000000000     0.000000000000     0.188040000000    -0.020387   
C40      C      0.500000000000     0.000000000000     0.521373333333    -0.020387   
C40      C      0.500000000000     0.000000000000     0.854706666667    -0.020387   
C40      C      0.500000000000     0.500000000000     0.188040000000    -0.020387   
C40      C      0.500000000000     0.500000000000     0.521373333333    -0.020387   
C40      C      0.500000000000     0.500000000000     0.854706666667    -0.020387   
C41      C      0.000000000000     0.000000000000     0.265386666667    -0.020387   
C41      C      0.000000000000     0.000000000000     0.598720000000    -0.020387   
C41      C      0.000000000000     0.000000000000     0.932053333333    -0.020387   
C41      C      0.000000000000     0.500000000000     0.265386666667    -0.020387   
C41      C      0.000000000000     0.500000000000     0.598720000000    -0.020387   
C41      C      0.000000000000     0.500000000000     0.932053333333    -0.020387   
C41      C      0.500000000000     0.000000000000     0.265386666667    -0.020387   
C41      C      0.500000000000     0.000000000000     0.598720000000    -0.020387   
C41      C      0.500000000000     0.000000000000     0.932053333333    -0.020387   
C41      C      0.500000000000     0.500000000000     0.265386666667    -0.020387   
C41      C      0.500000000000     0.500000000000     0.598720000000    -0.020387   
C41      C      0.500000000000     0.500000000000     0.932053333333    -0.020387   
C42      C      0.046520000000     0.430125000000     0.067263333333    -0.020358   
C42      C      0.046520000000     0.430125000000     0.400596666667    -0.020358   
C42      C      0.046520000000     0.430125000000     0.733930000000    -0.020358   
C42      C      0.046520000000     0.930125000000     0.067263333333    -0.020358   
C42      C      0.046520000000     0.930125000000     0.400596666667    -0.020358   
C42      C      0.046520000000     0.930125000000     0.733930000000    -0.020358   
C42      C      0.546520000000     0.430125000000     0.067263333333    -0.020358   
C42      C      0.546520000000     0.430125000000     0.400596666667    -0.020358   
C42      C      0.546520000000     0.430125000000     0.733930000000    -0.020358   
C42      C      0.546520000000     0.930125000000     0.067263333333    -0.020358   
C42      C      0.546520000000     0.930125000000     0.400596666667    -0.020358   
C42      C      0.546520000000     0.930125000000     0.733930000000    -0.020358   
C43      C      0.020000000000     0.465390000000     0.086633333333     0.633011   
C43      C      0.020000000000     0.465390000000     0.419966666667     0.633011   
C43      C      0.020000000000     0.465390000000     0.753300000000     0.633011   
C43      C      0.020000000000     0.965390000000     0.086633333333     0.633011   
C43      C      0.020000000000     0.965390000000     0.419966666667     0.633011   
C43      C      0.020000000000     0.965390000000     0.753300000000     0.633011   
C43      C      0.520000000000     0.465390000000     0.086633333333     0.633011   
C43      C      0.520000000000     0.465390000000     0.419966666667     0.633011   
C43      C      0.520000000000     0.465390000000     0.753300000000     0.633011   
C43      C      0.520000000000     0.965390000000     0.086633333333     0.633011   
C43      C      0.520000000000     0.965390000000     0.419966666667     0.633011   
C43      C      0.520000000000     0.965390000000     0.753300000000     0.633011   
C44      C      0.020675000000     0.464785000000     0.126396666667    -0.120644   
C44      C      0.020675000000     0.464785000000     0.459730000000    -0.120644   
C44      C      0.020675000000     0.464785000000     0.793063333333    -0.120644   
C44      C      0.020675000000     0.964785000000     0.126396666667    -0.120644   
C44      C      0.020675000000     0.964785000000     0.459730000000    -0.120644   
C44      C      0.020675000000     0.964785000000     0.793063333333    -0.120644   
C44      C      0.520675000000     0.464785000000     0.126396666667    -0.120644   
C44      C      0.520675000000     0.464785000000     0.459730000000    -0.120644   
C44      C      0.520675000000     0.464785000000     0.793063333333    -0.120644   
C44      C      0.520675000000     0.964785000000     0.126396666667    -0.120644   
C44      C      0.520675000000     0.964785000000     0.459730000000    -0.120644   
C44      C      0.520675000000     0.964785000000     0.793063333333    -0.120644   
C45      C      0.250000000000     0.000000000000     0.104706666667     0.082216   
C45      C      0.250000000000     0.000000000000     0.438040000000     0.082216   
C45      C      0.250000000000     0.000000000000     0.771373333333     0.082216   
C45      C      0.250000000000     0.500000000000     0.104706666667     0.082216   
C45      C      0.250000000000     0.500000000000     0.438040000000     0.082216   
C45      C      0.250000000000     0.500000000000     0.771373333333     0.082216   
C45      C      0.750000000000     0.000000000000     0.104706666667     0.082216   
C45      C      0.750000000000     0.000000000000     0.438040000000     0.082216   
C45      C      0.750000000000     0.000000000000     0.771373333333     0.082216   
C45      C      0.750000000000     0.500000000000     0.104706666667     0.082216   
C45      C      0.750000000000     0.500000000000     0.438040000000     0.082216   
C45      C      0.750000000000     0.500000000000     0.771373333333     0.082216   
C46      C      0.250000000000     0.000000000000     0.182053333333     0.633046   
C46      C      0.250000000000     0.000000000000     0.515386666667     0.633046   
C46      C      0.250000000000     0.000000000000     0.848720000000     0.633046   
C46      C      0.250000000000     0.500000000000     0.182053333333     0.633046   
C46      C      0.250000000000     0.500000000000     0.515386666667     0.633046   
C46      C      0.250000000000     0.500000000000     0.848720000000     0.633046   
C46      C      0.750000000000     0.000000000000     0.182053333333     0.633046   
C46      C      0.750000000000     0.000000000000     0.515386666667     0.633046   
C46      C      0.750000000000     0.000000000000     0.848720000000     0.633046   
C46      C      0.750000000000     0.500000000000     0.182053333333     0.633046   
C46      C      0.750000000000     0.500000000000     0.515386666667     0.633046   
C46      C      0.750000000000     0.500000000000     0.848720000000     0.633046   
C47      C      0.453480000000     0.069875000000     0.067263333333    -0.171279   
C47      C      0.453480000000     0.069875000000     0.400596666667    -0.171279   
C47      C      0.453480000000     0.069875000000     0.733930000000    -0.171279   
C47      C      0.453480000000     0.569875000000     0.067263333333    -0.171279   
C47      C      0.453480000000     0.569875000000     0.400596666667    -0.171279   
C47      C      0.453480000000     0.569875000000     0.733930000000    -0.171279   
C47      C      0.953480000000     0.069875000000     0.067263333333    -0.171279   
C47      C      0.953480000000     0.069875000000     0.400596666667    -0.171279   
C47      C      0.953480000000     0.069875000000     0.733930000000    -0.171279   
C47      C      0.953480000000     0.569875000000     0.067263333333    -0.171279   
C47      C      0.953480000000     0.569875000000     0.400596666667    -0.171279   
C47      C      0.953480000000     0.569875000000     0.733930000000    -0.171279   
C48      C      0.250000000000     0.000000000000     0.317946666667     0.130647   
C48      C      0.250000000000     0.000000000000     0.651280000000     0.130647   
C48      C      0.250000000000     0.000000000000     0.984613333333     0.130647   
C48      C      0.250000000000     0.500000000000     0.317946666667     0.130647   
C48      C      0.250000000000     0.500000000000     0.651280000000     0.130647   
C48      C      0.250000000000     0.500000000000     0.984613333333     0.130647   
C48      C      0.750000000000     0.000000000000     0.317946666667     0.130647   
C48      C      0.750000000000     0.000000000000     0.651280000000     0.130647   
C48      C      0.750000000000     0.000000000000     0.984613333333     0.130647   
C48      C      0.750000000000     0.500000000000     0.317946666667     0.130647   
C48      C      0.750000000000     0.500000000000     0.651280000000     0.130647   
C48      C      0.750000000000     0.500000000000     0.984613333333     0.130647   
C49      C      0.035215000000     0.479325000000     0.206936666667     0.130631   
C49      C      0.035215000000     0.479325000000     0.540270000000     0.130631   
C49      C      0.035215000000     0.479325000000     0.873603333333     0.130631   
C49      C      0.035215000000     0.979325000000     0.206936666667     0.130631   
C49      C      0.035215000000     0.979325000000     0.540270000000     0.130631   
C49      C      0.035215000000     0.979325000000     0.873603333333     0.130631   
C49      C      0.535215000000     0.479325000000     0.206936666667     0.130631   
C49      C      0.535215000000     0.479325000000     0.540270000000     0.130631   
C49      C      0.535215000000     0.479325000000     0.873603333333     0.130631   
C49      C      0.535215000000     0.979325000000     0.206936666667     0.130631   
C49      C      0.535215000000     0.979325000000     0.540270000000     0.130631   
C49      C      0.535215000000     0.979325000000     0.873603333333     0.130631   
C50      C      0.479325000000     0.035215000000     0.126396666667     0.130647   
C50      C      0.479325000000     0.035215000000     0.459730000000     0.130647   
C50      C      0.479325000000     0.035215000000     0.793063333333     0.130647   
C50      C      0.479325000000     0.535215000000     0.126396666667     0.130647   
C50      C      0.479325000000     0.535215000000     0.459730000000     0.130647   
C50      C      0.479325000000     0.535215000000     0.793063333333     0.130647   
C50      C      0.979325000000     0.035215000000     0.126396666667     0.130647   
C50      C      0.979325000000     0.035215000000     0.459730000000     0.130647   
C50      C      0.979325000000     0.035215000000     0.793063333333     0.130647   
C50      C      0.979325000000     0.535215000000     0.126396666667     0.130647   
C50      C      0.979325000000     0.535215000000     0.459730000000     0.130647   
C50      C      0.979325000000     0.535215000000     0.793063333333     0.130647   
C51      C      0.464785000000     0.020675000000     0.206936666667     0.447684   
C51      C      0.464785000000     0.020675000000     0.540270000000     0.447684   
C51      C      0.464785000000     0.020675000000     0.873603333333     0.447684   
C51      C      0.464785000000     0.520675000000     0.206936666667     0.447684   
C51      C      0.464785000000     0.520675000000     0.540270000000     0.447684   
C51      C      0.464785000000     0.520675000000     0.873603333333     0.447684   
C51      C      0.964785000000     0.020675000000     0.206936666667     0.447684   
C51      C      0.964785000000     0.020675000000     0.540270000000     0.447684   
C51      C      0.964785000000     0.020675000000     0.873603333333     0.447684   
C51      C      0.964785000000     0.520675000000     0.206936666667     0.447684   
C51      C      0.964785000000     0.520675000000     0.540270000000     0.447684   
C51      C      0.964785000000     0.520675000000     0.873603333333     0.447684   
C52      C      0.285215000000     0.020675000000     0.043063333333     0.44765    
C52      C      0.285215000000     0.020675000000     0.376396666667     0.44765    
C52      C      0.285215000000     0.020675000000     0.709730000000     0.44765    
C52      C      0.285215000000     0.520675000000     0.043063333333     0.44765    
C52      C      0.285215000000     0.520675000000     0.376396666667     0.44765    
C52      C      0.285215000000     0.520675000000     0.709730000000     0.44765    
C52      C      0.785215000000     0.020675000000     0.043063333333     0.44765    
C52      C      0.785215000000     0.020675000000     0.376396666667     0.44765    
C52      C      0.785215000000     0.020675000000     0.709730000000     0.44765    
C52      C      0.785215000000     0.520675000000     0.043063333333     0.44765    
C52      C      0.785215000000     0.520675000000     0.376396666667     0.44765    
C52      C      0.785215000000     0.520675000000     0.709730000000     0.44765    
C53      C      0.284610000000     0.020000000000     0.003300000000     0.447687   
C53      C      0.284610000000     0.020000000000     0.336633333333     0.447687   
C53      C      0.284610000000     0.020000000000     0.669966666667     0.447687   
C53      C      0.284610000000     0.520000000000     0.003300000000     0.447687   
C53      C      0.284610000000     0.520000000000     0.336633333333     0.447687   
C53      C      0.284610000000     0.520000000000     0.669966666667     0.447687   
C53      C      0.784610000000     0.020000000000     0.003300000000     0.447687   
C53      C      0.784610000000     0.020000000000     0.336633333333     0.447687   
C53      C      0.784610000000     0.020000000000     0.669966666667     0.447687   
C53      C      0.784610000000     0.520000000000     0.003300000000     0.447687   
C53      C      0.784610000000     0.520000000000     0.336633333333     0.447687   
C53      C      0.784610000000     0.520000000000     0.669966666667     0.447687   
C54      C      0.319875000000     0.046520000000     0.317263333333     0.447649   
C54      C      0.319875000000     0.046520000000     0.650596666667     0.447649   
C54      C      0.319875000000     0.046520000000     0.983930000000     0.447649   
C54      C      0.319875000000     0.546520000000     0.317263333333     0.447649   
C54      C      0.319875000000     0.546520000000     0.650596666667     0.447649   
C54      C      0.319875000000     0.546520000000     0.983930000000     0.447649   
C54      C      0.819875000000     0.046520000000     0.317263333333     0.447649   
C54      C      0.819875000000     0.046520000000     0.650596666667     0.447649   
C54      C      0.819875000000     0.046520000000     0.983930000000     0.447649   
C54      C      0.819875000000     0.546520000000     0.317263333333     0.447649   
C54      C      0.819875000000     0.546520000000     0.650596666667     0.447649   
C54      C      0.819875000000     0.546520000000     0.983930000000     0.447649   
C55      C      0.000000000000     0.250000000000     0.151280000000     0.447686   
C55      C      0.000000000000     0.250000000000     0.484613333333     0.447686   
C55      C      0.000000000000     0.250000000000     0.817946666667     0.447686   
C55      C      0.000000000000     0.750000000000     0.151280000000     0.447686   
C55      C      0.000000000000     0.750000000000     0.484613333333     0.447686   
C55      C      0.000000000000     0.750000000000     0.817946666667     0.447686   
C55      C      0.500000000000     0.250000000000     0.151280000000     0.447686   
C55      C      0.500000000000     0.250000000000     0.484613333333     0.447686   
C55      C      0.500000000000     0.250000000000     0.817946666667     0.447686   
C55      C      0.500000000000     0.750000000000     0.151280000000     0.447686   
C55      C      0.500000000000     0.750000000000     0.484613333333     0.447686   
C55      C      0.500000000000     0.750000000000     0.817946666667     0.447686   
C56      C      0.000000000000     0.250000000000     0.228626666667     0.44765    
C56      C      0.000000000000     0.250000000000     0.561960000000     0.44765    
C56      C      0.000000000000     0.250000000000     0.895293333333     0.44765    
C56      C      0.000000000000     0.750000000000     0.228626666667     0.44765    
C56      C      0.000000000000     0.750000000000     0.561960000000     0.44765    
C56      C      0.000000000000     0.750000000000     0.895293333333     0.44765    
C56      C      0.500000000000     0.250000000000     0.228626666667     0.44765    
C56      C      0.500000000000     0.250000000000     0.561960000000     0.44765    
C56      C      0.500000000000     0.250000000000     0.895293333333     0.44765    
C56      C      0.500000000000     0.750000000000     0.228626666667     0.44765    
C56      C      0.500000000000     0.750000000000     0.561960000000     0.44765    
C56      C      0.500000000000     0.750000000000     0.895293333333     0.44765    
C57      C      0.480000000000     0.034610000000     0.086633333333     0.447687   
C57      C      0.480000000000     0.034610000000     0.419966666667     0.447687   
C57      C      0.480000000000     0.034610000000     0.753300000000     0.447687   
C57      C      0.480000000000     0.534610000000     0.086633333333     0.447687   
C57      C      0.480000000000     0.534610000000     0.419966666667     0.447687   
C57      C      0.480000000000     0.534610000000     0.753300000000     0.447687   
C57      C      0.980000000000     0.034610000000     0.086633333333     0.447687   
C57      C      0.980000000000     0.034610000000     0.419966666667     0.447687   
C57      C      0.980000000000     0.034610000000     0.753300000000     0.447687   
C57      C      0.980000000000     0.534610000000     0.086633333333     0.447687   
C57      C      0.980000000000     0.534610000000     0.419966666667     0.447687   
C57      C      0.980000000000     0.534610000000     0.753300000000     0.447687   
C58      C      0.284610000000     0.230000000000     0.080033333333     0.44765    
C58      C      0.284610000000     0.230000000000     0.413366666667     0.44765    
C58      C      0.284610000000     0.230000000000     0.746700000000     0.44765    
C58      C      0.284610000000     0.730000000000     0.080033333333     0.44765    
C58      C      0.284610000000     0.730000000000     0.413366666667     0.44765    
C58      C      0.284610000000     0.730000000000     0.746700000000     0.44765    
C58      C      0.784610000000     0.230000000000     0.080033333333     0.44765    
C58      C      0.784610000000     0.230000000000     0.413366666667     0.44765    
C58      C      0.784610000000     0.230000000000     0.746700000000     0.44765    
C58      C      0.784610000000     0.730000000000     0.080033333333     0.44765    
C58      C      0.784610000000     0.730000000000     0.413366666667     0.44765    
C58      C      0.784610000000     0.730000000000     0.746700000000     0.44765    
C59      C      0.230000000000     0.284610000000     0.253300000000     0.132847   
C59      C      0.230000000000     0.284610000000     0.586633333333     0.132847   
C59      C      0.230000000000     0.284610000000     0.919966666667     0.132847   
C59      C      0.230000000000     0.784610000000     0.253300000000     0.132847   
C59      C      0.230000000000     0.784610000000     0.586633333333     0.132847   
C59      C      0.230000000000     0.784610000000     0.919966666667     0.132847   
C59      C      0.730000000000     0.284610000000     0.253300000000     0.132847   
C59      C      0.730000000000     0.284610000000     0.586633333333     0.132847   
C59      C      0.730000000000     0.284610000000     0.919966666667     0.132847   
C59      C      0.730000000000     0.784610000000     0.253300000000     0.132847   
C59      C      0.730000000000     0.784610000000     0.586633333333     0.132847   
C59      C      0.730000000000     0.784610000000     0.919966666667     0.132847   
C60      C      0.203480000000     0.319875000000     0.233930000000     0.132845   
C60      C      0.203480000000     0.319875000000     0.567263333333     0.132845   
C60      C      0.203480000000     0.319875000000     0.900596666667     0.132845   
C60      C      0.203480000000     0.819875000000     0.233930000000     0.132845   
C60      C      0.203480000000     0.819875000000     0.567263333333     0.132845   
C60      C      0.203480000000     0.819875000000     0.900596666667     0.132845   
C60      C      0.703480000000     0.319875000000     0.233930000000     0.132845   
C60      C      0.703480000000     0.319875000000     0.567263333333     0.132845   
C60      C      0.703480000000     0.319875000000     0.900596666667     0.132845   
C60      C      0.703480000000     0.819875000000     0.233930000000     0.132845   
C60      C      0.703480000000     0.819875000000     0.567263333333     0.132845   
C60      C      0.703480000000     0.819875000000     0.900596666667     0.132845   
C61      C      0.000000000000     0.250000000000     0.015386666667     0.132846   
C61      C      0.000000000000     0.250000000000     0.348720000000     0.132846   
C61      C      0.000000000000     0.250000000000     0.682053333333     0.132846   
C61      C      0.000000000000     0.750000000000     0.015386666667     0.132846   
C61      C      0.000000000000     0.750000000000     0.348720000000     0.132846   
C61      C      0.000000000000     0.750000000000     0.682053333333     0.132846   
C61      C      0.500000000000     0.250000000000     0.015386666667     0.132846   
C61      C      0.500000000000     0.250000000000     0.348720000000     0.132846   
C61      C      0.500000000000     0.250000000000     0.682053333333     0.132846   
C61      C      0.500000000000     0.750000000000     0.015386666667     0.132846   
C61      C      0.500000000000     0.750000000000     0.348720000000     0.132846   
C61      C      0.500000000000     0.750000000000     0.682053333333     0.132846   
C62      C      0.000000000000     0.250000000000     0.271373333333     0.132846   
C62      C      0.000000000000     0.250000000000     0.604706666667     0.132846   
C62      C      0.000000000000     0.250000000000     0.938040000000     0.132846   
C62      C      0.000000000000     0.750000000000     0.271373333333     0.132846   
C62      C      0.000000000000     0.750000000000     0.604706666667     0.132846   
C62      C      0.000000000000     0.750000000000     0.938040000000     0.132846   
C62      C      0.500000000000     0.250000000000     0.271373333333     0.132846   
C62      C      0.500000000000     0.250000000000     0.604706666667     0.132846   
C62      C      0.500000000000     0.250000000000     0.938040000000     0.132846   
C62      C      0.500000000000     0.750000000000     0.271373333333     0.132846   
C62      C      0.500000000000     0.750000000000     0.604706666667     0.132846   
C62      C      0.500000000000     0.750000000000     0.938040000000     0.132846   
C63      C      0.319875000000     0.203480000000     0.099403333333     0.132845   
C63      C      0.319875000000     0.203480000000     0.432736666667     0.132845   
C63      C      0.319875000000     0.203480000000     0.766070000000     0.132845   
C63      C      0.319875000000     0.703480000000     0.099403333333     0.132845   
C63      C      0.319875000000     0.703480000000     0.432736666667     0.132845   
C63      C      0.319875000000     0.703480000000     0.766070000000     0.132845   
C63      C      0.819875000000     0.203480000000     0.099403333333     0.132845   
C63      C      0.819875000000     0.203480000000     0.432736666667     0.132845   
C63      C      0.819875000000     0.203480000000     0.766070000000     0.132845   
C63      C      0.819875000000     0.703480000000     0.099403333333     0.132845   
C63      C      0.819875000000     0.703480000000     0.432736666667     0.132845   
C63      C      0.819875000000     0.703480000000     0.766070000000     0.132845   
C64      C      0.229325000000     0.285215000000     0.293063333333     0.132846   
C64      C      0.229325000000     0.285215000000     0.626396666667     0.132846   
C64      C      0.229325000000     0.285215000000     0.959730000000     0.132846   
C64      C      0.229325000000     0.785215000000     0.293063333333     0.132846   
C64      C      0.229325000000     0.785215000000     0.626396666667     0.132846   
C64      C      0.229325000000     0.785215000000     0.959730000000     0.132846   
C64      C      0.729325000000     0.285215000000     0.293063333333     0.132846   
C64      C      0.729325000000     0.285215000000     0.626396666667     0.132846   
C64      C      0.729325000000     0.285215000000     0.959730000000     0.132846   
C64      C      0.729325000000     0.785215000000     0.293063333333     0.132846   
C64      C      0.729325000000     0.785215000000     0.626396666667     0.132846   
C64      C      0.729325000000     0.785215000000     0.959730000000     0.132846   
H1       H      0.190810000000     0.286590000000     0.030883333333     0.130648   
H1       H      0.190810000000     0.286590000000     0.364216666667     0.130648   
H1       H      0.190810000000     0.286590000000     0.697550000000     0.130648   
H1       H      0.190810000000     0.786590000000     0.030883333333     0.130648   
H1       H      0.190810000000     0.786590000000     0.364216666667     0.130648   
H1       H      0.190810000000     0.786590000000     0.697550000000     0.130648   
H1       H      0.690810000000     0.286590000000     0.030883333333     0.130648   
H1       H      0.690810000000     0.286590000000     0.364216666667     0.130648   
H1       H      0.690810000000     0.286590000000     0.697550000000     0.130648   
H1       H      0.690810000000     0.786590000000     0.030883333333     0.130648   
H1       H      0.690810000000     0.786590000000     0.364216666667     0.130648   
H1       H      0.690810000000     0.786590000000     0.697550000000     0.130648   
H2       H      0.309190000000     0.213410000000     0.030883333333     0.132846   
H2       H      0.309190000000     0.213410000000     0.364216666667     0.132846   
H2       H      0.309190000000     0.213410000000     0.697550000000     0.132846   
H2       H      0.309190000000     0.713410000000     0.030883333333     0.132846   
H2       H      0.309190000000     0.713410000000     0.364216666667     0.132846   
H2       H      0.309190000000     0.713410000000     0.697550000000     0.132846   
H2       H      0.809190000000     0.213410000000     0.030883333333     0.132846   
H2       H      0.809190000000     0.213410000000     0.364216666667     0.132846   
H2       H      0.809190000000     0.213410000000     0.697550000000     0.132846   
H2       H      0.809190000000     0.713410000000     0.030883333333     0.132846   
H2       H      0.809190000000     0.713410000000     0.364216666667     0.132846   
H2       H      0.809190000000     0.713410000000     0.697550000000     0.132846   
H3       H      0.036590000000     0.309190000000     0.280883333333     0.132847   
H3       H      0.036590000000     0.309190000000     0.614216666667     0.132847   
H3       H      0.036590000000     0.309190000000     0.947550000000     0.132847   
H3       H      0.036590000000     0.809190000000     0.280883333333     0.132847   
H3       H      0.036590000000     0.809190000000     0.614216666667     0.132847   
H3       H      0.036590000000     0.809190000000     0.947550000000     0.132847   
H3       H      0.536590000000     0.309190000000     0.280883333333     0.132847   
H3       H      0.536590000000     0.309190000000     0.614216666667     0.132847   
H3       H      0.536590000000     0.309190000000     0.947550000000     0.132847   
H3       H      0.536590000000     0.809190000000     0.280883333333     0.132847   
H3       H      0.536590000000     0.809190000000     0.614216666667     0.132847   
H3       H      0.536590000000     0.809190000000     0.947550000000     0.132847   
H4       H      0.403000000000     0.125000000000     0.208333333333     0.130631   
H4       H      0.403000000000     0.125000000000     0.541666666667     0.130631   
H4       H      0.403000000000     0.125000000000     0.875000000000     0.130631   
H4       H      0.403000000000     0.625000000000     0.208333333333     0.130631   
H4       H      0.403000000000     0.625000000000     0.541666666667     0.130631   
H4       H      0.403000000000     0.625000000000     0.875000000000     0.130631   
H4       H      0.903000000000     0.125000000000     0.208333333333     0.130631   
H4       H      0.903000000000     0.125000000000     0.541666666667     0.130631   
H4       H      0.903000000000     0.125000000000     0.875000000000     0.130631   
H4       H      0.903000000000     0.625000000000     0.208333333333     0.130631   
H4       H      0.903000000000     0.625000000000     0.541666666667     0.130631   
H4       H      0.903000000000     0.625000000000     0.875000000000     0.130631   
H5       H      0.153000000000     0.375000000000     0.041666666667     0.130648   
H5       H      0.153000000000     0.375000000000     0.375000000000     0.130648   
H5       H      0.153000000000     0.375000000000     0.708333333333     0.130648   
H5       H      0.153000000000     0.875000000000     0.041666666667     0.130648   
H5       H      0.153000000000     0.875000000000     0.375000000000     0.130648   
H5       H      0.153000000000     0.875000000000     0.708333333333     0.130648   
H5       H      0.653000000000     0.375000000000     0.041666666667     0.130648   
H5       H      0.653000000000     0.375000000000     0.375000000000     0.130648   
H5       H      0.653000000000     0.375000000000     0.708333333333     0.130648   
H5       H      0.653000000000     0.875000000000     0.041666666667     0.130648   
H5       H      0.653000000000     0.875000000000     0.375000000000     0.130648   
H5       H      0.653000000000     0.875000000000     0.708333333333     0.130648   
H6       H      0.347000000000     0.125000000000     0.041666666667     0.130631   
H6       H      0.347000000000     0.125000000000     0.375000000000     0.130631   
H6       H      0.347000000000     0.125000000000     0.708333333333     0.130631   
H6       H      0.347000000000     0.625000000000     0.041666666667     0.130631   
H6       H      0.347000000000     0.625000000000     0.375000000000     0.130631   
H6       H      0.347000000000     0.625000000000     0.708333333333     0.130631   
H6       H      0.847000000000     0.125000000000     0.041666666667     0.130631   
H6       H      0.847000000000     0.125000000000     0.375000000000     0.130631   
H6       H      0.847000000000     0.125000000000     0.708333333333     0.130631   
H6       H      0.847000000000     0.625000000000     0.041666666667     0.130631   
H6       H      0.847000000000     0.625000000000     0.375000000000     0.130631   
H6       H      0.847000000000     0.625000000000     0.708333333333     0.130631   
H7       H      0.097000000000     0.375000000000     0.208333333333     0.130647   
H7       H      0.097000000000     0.375000000000     0.541666666667     0.130647   
H7       H      0.097000000000     0.375000000000     0.875000000000     0.130647   
H7       H      0.097000000000     0.875000000000     0.208333333333     0.130647   
H7       H      0.097000000000     0.875000000000     0.541666666667     0.130647   
H7       H      0.097000000000     0.875000000000     0.875000000000     0.130647   
H7       H      0.597000000000     0.375000000000     0.208333333333     0.130647   
H7       H      0.597000000000     0.375000000000     0.541666666667     0.130647   
H7       H      0.597000000000     0.375000000000     0.875000000000     0.130647   
H7       H      0.597000000000     0.875000000000     0.208333333333     0.130647   
H7       H      0.597000000000     0.875000000000     0.541666666667     0.130647   
H7       H      0.597000000000     0.875000000000     0.875000000000     0.130647   
H8       H      0.375000000000     0.153000000000     0.291666666667     0.13063    
H8       H      0.375000000000     0.153000000000     0.625000000000     0.13063    
H8       H      0.375000000000     0.153000000000     0.958333333333     0.13063    
H8       H      0.375000000000     0.653000000000     0.291666666667     0.13063    
H8       H      0.375000000000     0.653000000000     0.625000000000     0.13063    
H8       H      0.375000000000     0.653000000000     0.958333333333     0.13063    
H8       H      0.875000000000     0.153000000000     0.291666666667     0.13063    
H8       H      0.875000000000     0.153000000000     0.625000000000     0.13063    
H8       H      0.875000000000     0.153000000000     0.958333333333     0.13063    
H8       H      0.875000000000     0.653000000000     0.291666666667     0.13063    
H8       H      0.875000000000     0.653000000000     0.625000000000     0.13063    
H8       H      0.875000000000     0.653000000000     0.958333333333     0.13063    
H9       H      0.125000000000     0.403000000000     0.125000000000     0.130632   
H9       H      0.125000000000     0.403000000000     0.458333333333     0.130632   
H9       H      0.125000000000     0.403000000000     0.791666666667     0.130632   
H9       H      0.125000000000     0.903000000000     0.125000000000     0.130632   
H9       H      0.125000000000     0.903000000000     0.458333333333     0.130632   
H9       H      0.125000000000     0.903000000000     0.791666666667     0.130632   
H9       H      0.625000000000     0.403000000000     0.125000000000     0.130632   
H9       H      0.625000000000     0.403000000000     0.458333333333     0.130632   
H9       H      0.625000000000     0.403000000000     0.791666666667     0.130632   
H9       H      0.625000000000     0.903000000000     0.125000000000     0.130632   
H9       H      0.625000000000     0.903000000000     0.458333333333     0.130632   
H9       H      0.625000000000     0.903000000000     0.791666666667     0.130632   
H10      H      0.375000000000     0.097000000000     0.125000000000     0.130631   
H10      H      0.375000000000     0.097000000000     0.458333333333     0.130631   
H10      H      0.375000000000     0.097000000000     0.791666666667     0.130631   
H10      H      0.375000000000     0.597000000000     0.125000000000     0.130631   
H10      H      0.375000000000     0.597000000000     0.458333333333     0.130631   
H10      H      0.375000000000     0.597000000000     0.791666666667     0.130631   
H10      H      0.875000000000     0.097000000000     0.125000000000     0.130631   
H10      H      0.875000000000     0.097000000000     0.458333333333     0.130631   
H10      H      0.875000000000     0.097000000000     0.791666666667     0.130631   
H10      H      0.875000000000     0.597000000000     0.125000000000     0.130631   
H10      H      0.875000000000     0.597000000000     0.458333333333     0.130631   
H10      H      0.875000000000     0.597000000000     0.791666666667     0.130631   
H11      H      0.125000000000     0.347000000000     0.291666666667     0.130647   
H11      H      0.125000000000     0.347000000000     0.625000000000     0.130647   
H11      H      0.125000000000     0.347000000000     0.958333333333     0.130647   
H11      H      0.125000000000     0.847000000000     0.291666666667     0.130647   
H11      H      0.125000000000     0.847000000000     0.625000000000     0.130647   
H11      H      0.125000000000     0.847000000000     0.958333333333     0.130647   
H11      H      0.625000000000     0.347000000000     0.291666666667     0.130647   
H11      H      0.625000000000     0.347000000000     0.625000000000     0.130647   
H11      H      0.625000000000     0.347000000000     0.958333333333     0.130647   
H11      H      0.625000000000     0.847000000000     0.291666666667     0.130647   
H11      H      0.625000000000     0.847000000000     0.625000000000     0.130647   
H11      H      0.625000000000     0.847000000000     0.958333333333     0.130647   
H12      H      0.000000000000     0.000000000000     0.042233333333     0.130648   
H12      H      0.000000000000     0.000000000000     0.375566666667     0.130648   
H12      H      0.000000000000     0.000000000000     0.708900000000     0.130648   
H12      H      0.000000000000     0.500000000000     0.042233333333     0.130648   
H12      H      0.000000000000     0.500000000000     0.375566666667     0.130648   
H12      H      0.000000000000     0.500000000000     0.708900000000     0.130648   
H12      H      0.500000000000     0.000000000000     0.042233333333     0.130648   
H12      H      0.500000000000     0.000000000000     0.375566666667     0.130648   
H12      H      0.500000000000     0.000000000000     0.708900000000     0.130648   
H12      H      0.500000000000     0.500000000000     0.042233333333     0.130648   
H12      H      0.500000000000     0.500000000000     0.375566666667     0.130648   
H12      H      0.500000000000     0.500000000000     0.708900000000     0.130648   
H13      H      0.250000000000     0.000000000000     0.292233333333     0.130647   
H13      H      0.250000000000     0.000000000000     0.625566666667     0.130647   
H13      H      0.250000000000     0.000000000000     0.958900000000     0.130647   
H13      H      0.250000000000     0.500000000000     0.292233333333     0.130647   
H13      H      0.250000000000     0.500000000000     0.625566666667     0.130647   
H13      H      0.250000000000     0.500000000000     0.958900000000     0.130647   
H13      H      0.750000000000     0.000000000000     0.292233333333     0.130647   
H13      H      0.750000000000     0.000000000000     0.625566666667     0.130647   
H13      H      0.750000000000     0.000000000000     0.958900000000     0.130647   
H13      H      0.750000000000     0.500000000000     0.292233333333     0.130647   
H13      H      0.750000000000     0.500000000000     0.625566666667     0.130647   
H13      H      0.750000000000     0.500000000000     0.958900000000     0.130647   
H14      H      0.000000000000     0.250000000000     0.125566666667     0.130631   
H14      H      0.000000000000     0.250000000000     0.458900000000     0.130631   
H14      H      0.000000000000     0.250000000000     0.792233333333     0.130631   
H14      H      0.000000000000     0.750000000000     0.125566666667     0.130631   
H14      H      0.000000000000     0.750000000000     0.458900000000     0.130631   
H14      H      0.000000000000     0.750000000000     0.792233333333     0.130631   
H14      H      0.500000000000     0.250000000000     0.125566666667     0.130631   
H14      H      0.500000000000     0.250000000000     0.458900000000     0.130631   
H14      H      0.500000000000     0.250000000000     0.792233333333     0.130631   
H14      H      0.500000000000     0.750000000000     0.125566666667     0.130631   
H14      H      0.500000000000     0.750000000000     0.458900000000     0.130631   
H14      H      0.500000000000     0.750000000000     0.792233333333     0.130631   
H15      H      0.000000000000     0.250000000000     0.041100000000     0.130631   
H15      H      0.000000000000     0.250000000000     0.374433333333     0.130631   
H15      H      0.000000000000     0.250000000000     0.707766666667     0.130631   
H15      H      0.000000000000     0.750000000000     0.041100000000     0.130631   
H15      H      0.000000000000     0.750000000000     0.374433333333     0.130631   
H15      H      0.000000000000     0.750000000000     0.707766666667     0.130631   
H15      H      0.500000000000     0.250000000000     0.041100000000     0.130631   
H15      H      0.500000000000     0.250000000000     0.374433333333     0.130631   
H15      H      0.500000000000     0.250000000000     0.707766666667     0.130631   
H15      H      0.500000000000     0.750000000000     0.041100000000     0.130631   
H15      H      0.500000000000     0.750000000000     0.374433333333     0.130631   
H15      H      0.500000000000     0.750000000000     0.707766666667     0.130631   
H16      H      0.250000000000     0.000000000000     0.207766666667    -1.01381    
H16      H      0.250000000000     0.000000000000     0.541100000000    -1.01381    
H16      H      0.250000000000     0.000000000000     0.874433333333    -1.01381    
H16      H      0.250000000000     0.500000000000     0.207766666667    -1.01381    
H16      H      0.250000000000     0.500000000000     0.541100000000    -1.01381    
H16      H      0.250000000000     0.500000000000     0.874433333333    -1.01381    
H16      H      0.750000000000     0.000000000000     0.207766666667    -1.01381    
H16      H      0.750000000000     0.000000000000     0.541100000000    -1.01381    
H16      H      0.750000000000     0.000000000000     0.874433333333    -1.01381    
H16      H      0.750000000000     0.500000000000     0.207766666667    -1.01381    
H16      H      0.750000000000     0.500000000000     0.541100000000    -1.01381    
H16      H      0.750000000000     0.500000000000     0.874433333333    -1.01381    
H17      H      0.000000000000     0.000000000000     0.291100000000    -0.613753   
H17      H      0.000000000000     0.000000000000     0.624433333333    -0.613753   
H17      H      0.000000000000     0.000000000000     0.957766666667    -0.613753   
H17      H      0.000000000000     0.500000000000     0.291100000000    -0.613753   
H17      H      0.000000000000     0.500000000000     0.624433333333    -0.613753   
H17      H      0.000000000000     0.500000000000     0.957766666667    -0.613753   
H17      H      0.500000000000     0.000000000000     0.291100000000    -0.613753   
H17      H      0.500000000000     0.000000000000     0.624433333333    -0.613753   
H17      H      0.500000000000     0.000000000000     0.957766666667    -0.613753   
H17      H      0.500000000000     0.500000000000     0.291100000000    -0.613753   
H17      H      0.500000000000     0.500000000000     0.624433333333    -0.613753   
H17      H      0.500000000000     0.500000000000     0.957766666667    -0.613753   
H18      H      0.059190000000     0.463410000000     0.197550000000    -0.555328   
H18      H      0.059190000000     0.463410000000     0.530883333333    -0.555328   
H18      H      0.059190000000     0.463410000000     0.864216666667    -0.555328   
H18      H      0.059190000000     0.963410000000     0.197550000000    -0.555328   
H18      H      0.059190000000     0.963410000000     0.530883333333    -0.555328   
H18      H      0.059190000000     0.963410000000     0.864216666667    -0.555328   
H18      H      0.559190000000     0.463410000000     0.197550000000    -0.555328   
H18      H      0.559190000000     0.463410000000     0.530883333333    -0.555328   
H18      H      0.559190000000     0.463410000000     0.864216666667    -0.555328   
H18      H      0.559190000000     0.963410000000     0.197550000000    -0.555328   
H18      H      0.559190000000     0.963410000000     0.530883333333    -0.555328   
H18      H      0.559190000000     0.963410000000     0.864216666667    -0.555328   
H19      H      0.250000000000     0.250000000000     0.208900000000    -0.61375    
H19      H      0.250000000000     0.250000000000     0.542233333333    -0.61375    
H19      H      0.250000000000     0.250000000000     0.875566666667    -0.61375    
H19      H      0.250000000000     0.750000000000     0.208900000000    -0.61375    
H19      H      0.250000000000     0.750000000000     0.542233333333    -0.61375    
H19      H      0.250000000000     0.750000000000     0.875566666667    -0.61375    
H19      H      0.750000000000     0.250000000000     0.208900000000    -0.61375    
H19      H      0.750000000000     0.250000000000     0.542233333333    -0.61375    
H19      H      0.750000000000     0.250000000000     0.875566666667    -0.61375    
H19      H      0.750000000000     0.750000000000     0.208900000000    -0.61375    
H19      H      0.750000000000     0.750000000000     0.542233333333    -0.61375    
H19      H      0.750000000000     0.750000000000     0.875566666667    -0.61375    
H20      H      0.250000000000     0.250000000000     0.124433333333    -0.555345   
H20      H      0.250000000000     0.250000000000     0.457766666667    -0.555345   
H20      H      0.250000000000     0.250000000000     0.791100000000    -0.555345   
H20      H      0.250000000000     0.750000000000     0.124433333333    -0.555345   
H20      H      0.250000000000     0.750000000000     0.457766666667    -0.555345   
H20      H      0.250000000000     0.750000000000     0.791100000000    -0.555345   
H20      H      0.750000000000     0.250000000000     0.124433333333    -0.555345   
H20      H      0.750000000000     0.250000000000     0.457766666667    -0.555345   
H20      H      0.750000000000     0.250000000000     0.791100000000    -0.555345   
H20      H      0.750000000000     0.750000000000     0.124433333333    -0.555345   
H20      H      0.750000000000     0.750000000000     0.457766666667    -0.555345   
H20      H      0.750000000000     0.750000000000     0.791100000000    -0.555345   
H21      H      0.463410000000     0.190810000000     0.280883333333    -0.613767   
H21      H      0.463410000000     0.190810000000     0.614216666667    -0.613767   
H21      H      0.463410000000     0.190810000000     0.947550000000    -0.613767   
H21      H      0.463410000000     0.690810000000     0.280883333333    -0.613767   
H21      H      0.463410000000     0.690810000000     0.614216666667    -0.613767   
H21      H      0.463410000000     0.690810000000     0.947550000000    -0.613767   
H21      H      0.963410000000     0.190810000000     0.280883333333    -0.613767   
H21      H      0.963410000000     0.190810000000     0.614216666667    -0.613767   
H21      H      0.963410000000     0.190810000000     0.947550000000    -0.613767   
H21      H      0.963410000000     0.690810000000     0.280883333333    -0.613767   
H21      H      0.963410000000     0.690810000000     0.614216666667    -0.613767   
H21      H      0.963410000000     0.690810000000     0.947550000000    -0.613767   
H22      H      0.213410000000     0.309190000000     0.302450000000    -0.555326   
H22      H      0.213410000000     0.309190000000     0.635783333333    -0.555326   
H22      H      0.213410000000     0.309190000000     0.969116666667    -0.555326   
H22      H      0.213410000000     0.809190000000     0.302450000000    -0.555326   
H22      H      0.213410000000     0.809190000000     0.635783333333    -0.555326   
H22      H      0.213410000000     0.809190000000     0.969116666667    -0.555326   
H22      H      0.713410000000     0.309190000000     0.302450000000    -0.555326   
H22      H      0.713410000000     0.309190000000     0.635783333333    -0.555326   
H22      H      0.713410000000     0.309190000000     0.969116666667    -0.555326   
H22      H      0.713410000000     0.809190000000     0.302450000000    -0.555326   
H22      H      0.713410000000     0.809190000000     0.635783333333    -0.555326   
H22      H      0.713410000000     0.809190000000     0.969116666667    -0.555326   
H23      H      0.440810000000     0.213410000000     0.219116666667    -0.613768   
H23      H      0.440810000000     0.213410000000     0.552450000000    -0.613768   
H23      H      0.440810000000     0.213410000000     0.885783333333    -0.613768   
H23      H      0.440810000000     0.713410000000     0.219116666667    -0.613768   
H23      H      0.440810000000     0.713410000000     0.552450000000    -0.613768   
H23      H      0.440810000000     0.713410000000     0.885783333333    -0.613768   
H23      H      0.940810000000     0.213410000000     0.219116666667    -0.613768   
H23      H      0.940810000000     0.213410000000     0.552450000000    -0.613768   
H23      H      0.940810000000     0.213410000000     0.885783333333    -0.613768   
H23      H      0.940810000000     0.713410000000     0.219116666667    -0.613768   
H23      H      0.940810000000     0.713410000000     0.552450000000    -0.613768   
H23      H      0.940810000000     0.713410000000     0.885783333333    -0.613768   
H24      H      0.213410000000     0.440810000000     0.114216666667    -1.0138     
H24      H      0.213410000000     0.440810000000     0.447550000000    -1.0138     
H24      H      0.213410000000     0.440810000000     0.780883333333    -1.0138     
H24      H      0.213410000000     0.940810000000     0.114216666667    -1.0138     
H24      H      0.213410000000     0.940810000000     0.447550000000    -1.0138     
H24      H      0.213410000000     0.940810000000     0.780883333333    -1.0138     
H24      H      0.713410000000     0.440810000000     0.114216666667    -1.0138     
H24      H      0.713410000000     0.440810000000     0.447550000000    -1.0138     
H24      H      0.713410000000     0.440810000000     0.780883333333    -1.0138     
H24      H      0.713410000000     0.940810000000     0.114216666667    -1.0138     
H24      H      0.713410000000     0.940810000000     0.447550000000    -1.0138     
H24      H      0.713410000000     0.940810000000     0.780883333333    -1.0138     
H25      H      0.286590000000     0.059190000000     0.114216666667    -0.613751   
H25      H      0.286590000000     0.059190000000     0.447550000000    -0.613751   
H25      H      0.286590000000     0.059190000000     0.780883333333    -0.613751   
H25      H      0.286590000000     0.559190000000     0.114216666667    -0.613751   
H25      H      0.286590000000     0.559190000000     0.447550000000    -0.613751   
H25      H      0.286590000000     0.559190000000     0.780883333333    -0.613751   
H25      H      0.786590000000     0.059190000000     0.114216666667    -0.613751   
H25      H      0.786590000000     0.059190000000     0.447550000000    -0.613751   
H25      H      0.786590000000     0.059190000000     0.780883333333    -0.613751   
H25      H      0.786590000000     0.559190000000     0.114216666667    -0.613751   
H25      H      0.786590000000     0.559190000000     0.447550000000    -0.613751   
H25      H      0.786590000000     0.559190000000     0.780883333333    -0.613751   
H26      H      0.463410000000     0.059190000000     0.135783333333    -0.555347   
H26      H      0.463410000000     0.059190000000     0.469116666667    -0.555347   
H26      H      0.463410000000     0.059190000000     0.802450000000    -0.555347   
H26      H      0.463410000000     0.559190000000     0.135783333333    -0.555347   
H26      H      0.463410000000     0.559190000000     0.469116666667    -0.555347   
H26      H      0.463410000000     0.559190000000     0.802450000000    -0.555347   
H26      H      0.963410000000     0.059190000000     0.135783333333    -0.555347   
H26      H      0.963410000000     0.059190000000     0.469116666667    -0.555347   
H26      H      0.963410000000     0.059190000000     0.802450000000    -0.555347   
H26      H      0.963410000000     0.559190000000     0.135783333333    -0.555347   
H26      H      0.963410000000     0.559190000000     0.469116666667    -0.555347   
H26      H      0.963410000000     0.559190000000     0.802450000000    -0.555347   
H27      H      0.309190000000     0.036590000000     0.052450000000    -0.613762   
H27      H      0.309190000000     0.036590000000     0.385783333333    -0.613762   
H27      H      0.309190000000     0.036590000000     0.719116666667    -0.613762   
H27      H      0.309190000000     0.536590000000     0.052450000000    -0.613762   
H27      H      0.309190000000     0.536590000000     0.385783333333    -0.613762   
H27      H      0.309190000000     0.536590000000     0.719116666667    -0.613762   
H27      H      0.809190000000     0.036590000000     0.052450000000    -0.613762   
H27      H      0.809190000000     0.036590000000     0.385783333333    -0.613762   
H27      H      0.809190000000     0.036590000000     0.719116666667    -0.613762   
H27      H      0.809190000000     0.536590000000     0.052450000000    -0.613762   
H27      H      0.809190000000     0.536590000000     0.385783333333    -0.613762   
H27      H      0.809190000000     0.536590000000     0.719116666667    -0.613762   
H28      H      0.059190000000     0.286590000000     0.219116666667    -0.555325   
H28      H      0.059190000000     0.286590000000     0.552450000000    -0.555325   
H28      H      0.059190000000     0.286590000000     0.885783333333    -0.555325   
H28      H      0.059190000000     0.786590000000     0.219116666667    -0.555325   
H28      H      0.059190000000     0.786590000000     0.552450000000    -0.555325   
H28      H      0.059190000000     0.786590000000     0.885783333333    -0.555325   
H28      H      0.559190000000     0.286590000000     0.219116666667    -0.555325   
H28      H      0.559190000000     0.286590000000     0.552450000000    -0.555325   
H28      H      0.559190000000     0.286590000000     0.885783333333    -0.555325   
H28      H      0.559190000000     0.786590000000     0.219116666667    -0.555325   
H28      H      0.559190000000     0.786590000000     0.552450000000    -0.555325   
H28      H      0.559190000000     0.786590000000     0.885783333333    -0.555325   
H29      H      0.036590000000     0.440810000000     0.135783333333    -0.613752   
H29      H      0.036590000000     0.440810000000     0.469116666667    -0.613752   
H29      H      0.036590000000     0.440810000000     0.802450000000    -0.613752   
H29      H      0.036590000000     0.940810000000     0.135783333333    -0.613752   
H29      H      0.036590000000     0.940810000000     0.469116666667    -0.613752   
H29      H      0.036590000000     0.940810000000     0.802450000000    -0.613752   
H29      H      0.536590000000     0.440810000000     0.135783333333    -0.613752   
H29      H      0.536590000000     0.440810000000     0.469116666667    -0.613752   
H29      H      0.536590000000     0.440810000000     0.802450000000    -0.613752   
H29      H      0.536590000000     0.940810000000     0.135783333333    -0.613752   
H29      H      0.536590000000     0.940810000000     0.469116666667    -0.613752   
H29      H      0.536590000000     0.940810000000     0.802450000000    -0.613752   
H30      H      0.190810000000     0.463410000000     0.052450000000    -0.555347   
H30      H      0.190810000000     0.463410000000     0.385783333333    -0.555347   
H30      H      0.190810000000     0.463410000000     0.719116666667    -0.555347   
H30      H      0.190810000000     0.963410000000     0.052450000000    -0.555347   
H30      H      0.190810000000     0.963410000000     0.385783333333    -0.555347   
H30      H      0.190810000000     0.963410000000     0.719116666667    -0.555347   
H30      H      0.690810000000     0.463410000000     0.052450000000    -0.555347   
H30      H      0.690810000000     0.463410000000     0.385783333333    -0.555347   
H30      H      0.690810000000     0.463410000000     0.719116666667    -0.555347   
H30      H      0.690810000000     0.963410000000     0.052450000000    -0.555347   
H30      H      0.690810000000     0.963410000000     0.385783333333    -0.555347   
H30      H      0.690810000000     0.963410000000     0.719116666667    -0.555347   
H31      H      0.440810000000     0.036590000000     0.197550000000    -0.613762   
H31      H      0.440810000000     0.036590000000     0.530883333333    -0.613762   
H31      H      0.440810000000     0.036590000000     0.864216666667    -0.613762   
H31      H      0.440810000000     0.536590000000     0.197550000000    -0.613762   
H31      H      0.440810000000     0.536590000000     0.530883333333    -0.613762   
H31      H      0.440810000000     0.536590000000     0.864216666667    -0.613762   
H31      H      0.940810000000     0.036590000000     0.197550000000    -0.613762   
H31      H      0.940810000000     0.036590000000     0.530883333333    -0.613762   
H31      H      0.940810000000     0.036590000000     0.864216666667    -0.613762   
H31      H      0.940810000000     0.536590000000     0.197550000000    -0.613762   
H31      H      0.940810000000     0.536590000000     0.530883333333    -0.613762   
H31      H      0.940810000000     0.536590000000     0.864216666667    -0.613762   
H32      H      0.286590000000     0.190810000000     0.302450000000    -0.555323   
H32      H      0.286590000000     0.190810000000     0.635783333333    -0.555323   
H32      H      0.286590000000     0.190810000000     0.969116666667    -0.555323   
H32      H      0.286590000000     0.690810000000     0.302450000000    -0.555323   
H32      H      0.286590000000     0.690810000000     0.635783333333    -0.555323   
H32      H      0.286590000000     0.690810000000     0.969116666667    -0.555323   
H32      H      0.786590000000     0.190810000000     0.302450000000    -0.555323   
H32      H      0.786590000000     0.190810000000     0.635783333333    -0.555323   
H32      H      0.786590000000     0.190810000000     0.969116666667    -0.555323   
H32      H      0.786590000000     0.690810000000     0.302450000000    -0.555323   
H32      H      0.786590000000     0.690810000000     0.635783333333    -0.555323   
H32      H      0.786590000000     0.690810000000     0.969116666667    -0.555323   
O1       O      0.125000000000     0.375850000000     0.291666666667    -0.555346   
O1       O      0.125000000000     0.375850000000     0.625000000000    -0.555346   
O1       O      0.125000000000     0.375850000000     0.958333333333    -0.555346   
O1       O      0.125000000000     0.875850000000     0.291666666667    -0.555346   
O1       O      0.125000000000     0.875850000000     0.625000000000    -0.555346   
O1       O      0.125000000000     0.875850000000     0.958333333333    -0.555346   
O1       O      0.625000000000     0.375850000000     0.291666666667    -0.555346   
O1       O      0.625000000000     0.375850000000     0.625000000000    -0.555346   
O1       O      0.625000000000     0.375850000000     0.958333333333    -0.555346   
O1       O      0.625000000000     0.875850000000     0.291666666667    -0.555346   
O1       O      0.625000000000     0.875850000000     0.625000000000    -0.555346   
O1       O      0.625000000000     0.875850000000     0.958333333333    -0.555346   
O2       O      0.449475000000     0.144905000000     0.330620000000    -0.555325   
O2       O      0.449475000000     0.144905000000     0.663953333333    -0.555325   
O2       O      0.449475000000     0.144905000000     0.997286666667    -0.555325   
O2       O      0.449475000000     0.644905000000     0.330620000000    -0.555325   
O2       O      0.449475000000     0.644905000000     0.663953333333    -0.555325   
O2       O      0.449475000000     0.644905000000     0.997286666667    -0.555325   
O2       O      0.949475000000     0.144905000000     0.330620000000    -0.555325   
O2       O      0.949475000000     0.144905000000     0.663953333333    -0.555325   
O2       O      0.949475000000     0.144905000000     0.997286666667    -0.555325   
O2       O      0.949475000000     0.644905000000     0.330620000000    -0.555325   
O2       O      0.949475000000     0.644905000000     0.663953333333    -0.555325   
O2       O      0.949475000000     0.644905000000     0.997286666667    -0.555325   
O3       O      0.439860000000     0.190675000000     0.119700000000    -0.613753   
O3       O      0.439860000000     0.190675000000     0.453033333333    -0.613753   
O3       O      0.439860000000     0.190675000000     0.786366666667    -0.613753   
O3       O      0.439860000000     0.690675000000     0.119700000000    -0.613753   
O3       O      0.439860000000     0.690675000000     0.453033333333    -0.613753   
O3       O      0.439860000000     0.690675000000     0.786366666667    -0.613753   
O3       O      0.939860000000     0.190675000000     0.119700000000    -0.613753   
O3       O      0.939860000000     0.190675000000     0.453033333333    -0.613753   
O3       O      0.939860000000     0.190675000000     0.786366666667    -0.613753   
O3       O      0.939860000000     0.690675000000     0.119700000000    -0.613753   
O3       O      0.939860000000     0.690675000000     0.453033333333    -0.613753   
O3       O      0.939860000000     0.690675000000     0.786366666667    -0.613753   
O4       O      0.394905000000     0.199475000000     0.169380000000    -0.555349   
O4       O      0.394905000000     0.199475000000     0.502713333333    -0.555349   
O4       O      0.394905000000     0.199475000000     0.836046666667    -0.555349   
O4       O      0.394905000000     0.699475000000     0.169380000000    -0.555349   
O4       O      0.394905000000     0.699475000000     0.502713333333    -0.555349   
O4       O      0.394905000000     0.699475000000     0.836046666667    -0.555349   
O4       O      0.894905000000     0.199475000000     0.169380000000    -0.555349   
O4       O      0.894905000000     0.199475000000     0.502713333333    -0.555349   
O4       O      0.894905000000     0.199475000000     0.836046666667    -0.555349   
O4       O      0.894905000000     0.699475000000     0.169380000000    -0.555349   
O4       O      0.894905000000     0.699475000000     0.502713333333    -0.555349   
O4       O      0.894905000000     0.699475000000     0.836046666667    -0.555349   
O5       O      0.189860000000     0.440675000000     0.286366666667    -0.555325   
O5       O      0.189860000000     0.440675000000     0.619700000000    -0.555325   
O5       O      0.189860000000     0.440675000000     0.953033333333    -0.555325   
O5       O      0.189860000000     0.940675000000     0.286366666667    -0.555325   
O5       O      0.189860000000     0.940675000000     0.619700000000    -0.555325   
O5       O      0.189860000000     0.940675000000     0.953033333333    -0.555325   
O5       O      0.689860000000     0.440675000000     0.286366666667    -0.555325   
O5       O      0.689860000000     0.440675000000     0.619700000000    -0.555325   
O5       O      0.689860000000     0.440675000000     0.953033333333    -0.555325   
O5       O      0.689860000000     0.940675000000     0.286366666667    -0.555325   
O5       O      0.689860000000     0.940675000000     0.619700000000    -0.555325   
O5       O      0.689860000000     0.940675000000     0.953033333333    -0.555325   
O6       O      0.144905000000     0.449475000000     0.002713333333    -0.613762   
O6       O      0.144905000000     0.449475000000     0.336046666667    -0.613762   
O6       O      0.144905000000     0.449475000000     0.669380000000    -0.613762   
O6       O      0.144905000000     0.949475000000     0.002713333333    -0.613762   
O6       O      0.144905000000     0.949475000000     0.336046666667    -0.613762   
O6       O      0.144905000000     0.949475000000     0.669380000000    -0.613762   
O6       O      0.644905000000     0.449475000000     0.002713333333    -0.613762   
O6       O      0.644905000000     0.449475000000     0.336046666667    -0.613762   
O6       O      0.644905000000     0.449475000000     0.669380000000    -0.613762   
O6       O      0.644905000000     0.949475000000     0.002713333333    -0.613762   
O6       O      0.644905000000     0.949475000000     0.336046666667    -0.613762   
O6       O      0.644905000000     0.949475000000     0.669380000000    -0.613762   
O7       O      0.310140000000     0.059325000000     0.286366666667    -0.555325   
O7       O      0.310140000000     0.059325000000     0.619700000000    -0.555325   
O7       O      0.310140000000     0.059325000000     0.953033333333    -0.555325   
O7       O      0.310140000000     0.559325000000     0.286366666667    -0.555325   
O7       O      0.310140000000     0.559325000000     0.619700000000    -0.555325   
O7       O      0.310140000000     0.559325000000     0.953033333333    -0.555325   
O7       O      0.810140000000     0.059325000000     0.286366666667    -0.555325   
O7       O      0.810140000000     0.059325000000     0.619700000000    -0.555325   
O7       O      0.810140000000     0.059325000000     0.953033333333    -0.555325   
O7       O      0.810140000000     0.559325000000     0.286366666667    -0.555325   
O7       O      0.810140000000     0.559325000000     0.619700000000    -0.555325   
O7       O      0.810140000000     0.559325000000     0.953033333333    -0.555325   
O8       O      0.105095000000     0.300525000000     0.169380000000    -0.613751   
O8       O      0.105095000000     0.300525000000     0.502713333333    -0.613751   
O8       O      0.105095000000     0.300525000000     0.836046666667    -0.613751   
O8       O      0.105095000000     0.800525000000     0.169380000000    -0.613751   
O8       O      0.105095000000     0.800525000000     0.502713333333    -0.613751   
O8       O      0.105095000000     0.800525000000     0.836046666667    -0.613751   
O8       O      0.605095000000     0.300525000000     0.169380000000    -0.613751   
O8       O      0.605095000000     0.300525000000     0.502713333333    -0.613751   
O8       O      0.605095000000     0.300525000000     0.836046666667    -0.613751   
O8       O      0.605095000000     0.800525000000     0.169380000000    -0.613751   
O8       O      0.605095000000     0.800525000000     0.502713333333    -0.613751   
O8       O      0.605095000000     0.800525000000     0.836046666667    -0.613751   
O9       O      0.375000000000     0.125850000000     0.125000000000    -0.613761   
O9       O      0.375000000000     0.125850000000     0.458333333333    -0.613761   
O9       O      0.375000000000     0.125850000000     0.791666666667    -0.613761   
O9       O      0.375000000000     0.625850000000     0.125000000000    -0.613761   
O9       O      0.375000000000     0.625850000000     0.458333333333    -0.613761   
O9       O      0.375000000000     0.625850000000     0.791666666667    -0.613761   
O9       O      0.875000000000     0.125850000000     0.125000000000    -0.613761   
O9       O      0.875000000000     0.125850000000     0.458333333333    -0.613761   
O9       O      0.875000000000     0.125850000000     0.791666666667    -0.613761   
O9       O      0.875000000000     0.625850000000     0.125000000000    -0.613761   
O9       O      0.875000000000     0.625850000000     0.458333333333    -0.613761   
O9       O      0.875000000000     0.625850000000     0.791666666667    -0.613761   
O10      O      0.355095000000     0.050525000000     0.002713333333    -0.555349   
O10      O      0.355095000000     0.050525000000     0.336046666667    -0.555349   
O10      O      0.355095000000     0.050525000000     0.669380000000    -0.555349   
O10      O      0.355095000000     0.550525000000     0.002713333333    -0.555349   
O10      O      0.355095000000     0.550525000000     0.336046666667    -0.555349   
O10      O      0.355095000000     0.550525000000     0.669380000000    -0.555349   
O10      O      0.855095000000     0.050525000000     0.002713333333    -0.555349   
O10      O      0.855095000000     0.050525000000     0.336046666667    -0.555349   
O10      O      0.855095000000     0.050525000000     0.669380000000    -0.555349   
O10      O      0.855095000000     0.550525000000     0.002713333333    -0.555349   
O10      O      0.855095000000     0.550525000000     0.336046666667    -0.555349   
O10      O      0.855095000000     0.550525000000     0.669380000000    -0.555349   
O11      O      0.190675000000     0.310140000000     0.203033333333    -0.555345   
O11      O      0.190675000000     0.310140000000     0.536366666667    -0.555345   
O11      O      0.190675000000     0.310140000000     0.869700000000    -0.555345   
O11      O      0.190675000000     0.810140000000     0.203033333333    -0.555345   
O11      O      0.190675000000     0.810140000000     0.536366666667    -0.555345   
O11      O      0.190675000000     0.810140000000     0.869700000000    -0.555345   
O11      O      0.690675000000     0.310140000000     0.203033333333    -0.555345   
O11      O      0.690675000000     0.310140000000     0.536366666667    -0.555345   
O11      O      0.690675000000     0.310140000000     0.869700000000    -0.555345   
O11      O      0.690675000000     0.810140000000     0.203033333333    -0.555345   
O11      O      0.690675000000     0.810140000000     0.536366666667    -0.555345   
O11      O      0.690675000000     0.810140000000     0.869700000000    -0.555345   
O12      O      0.199475000000     0.355095000000     0.252713333333    -0.613767   
O12      O      0.199475000000     0.355095000000     0.586046666667    -0.613767   
O12      O      0.199475000000     0.355095000000     0.919380000000    -0.613767   
O12      O      0.199475000000     0.855095000000     0.252713333333    -0.613767   
O12      O      0.199475000000     0.855095000000     0.586046666667    -0.613767   
O12      O      0.199475000000     0.855095000000     0.919380000000    -0.613767   
O12      O      0.699475000000     0.355095000000     0.252713333333    -0.613767   
O12      O      0.699475000000     0.355095000000     0.586046666667    -0.613767   
O12      O      0.699475000000     0.355095000000     0.919380000000    -0.613767   
O12      O      0.699475000000     0.855095000000     0.252713333333    -0.613767   
O12      O      0.699475000000     0.855095000000     0.586046666667    -0.613767   
O12      O      0.699475000000     0.855095000000     0.919380000000    -0.613767   
O13      O      0.440675000000     0.060140000000     0.036366666667    -0.555325   
O13      O      0.440675000000     0.060140000000     0.369700000000    -0.555325   
O13      O      0.440675000000     0.060140000000     0.703033333333    -0.555325   
O13      O      0.440675000000     0.560140000000     0.036366666667    -0.555325   
O13      O      0.440675000000     0.560140000000     0.369700000000    -0.555325   
O13      O      0.440675000000     0.560140000000     0.703033333333    -0.555325   
O13      O      0.940675000000     0.060140000000     0.036366666667    -0.555325   
O13      O      0.940675000000     0.060140000000     0.369700000000    -0.555325   
O13      O      0.940675000000     0.060140000000     0.703033333333    -0.555325   
O13      O      0.940675000000     0.560140000000     0.036366666667    -0.555325   
O13      O      0.940675000000     0.560140000000     0.369700000000    -0.555325   
O13      O      0.940675000000     0.560140000000     0.703033333333    -0.555325   
O14      O      0.449475000000     0.105095000000     0.086046666667    -1.01381    
O14      O      0.449475000000     0.105095000000     0.419380000000    -1.01381    
O14      O      0.449475000000     0.105095000000     0.752713333333    -1.01381    
O14      O      0.449475000000     0.605095000000     0.086046666667    -1.01381    
O14      O      0.449475000000     0.605095000000     0.419380000000    -1.01381    
O14      O      0.449475000000     0.605095000000     0.752713333333    -1.01381    
O14      O      0.949475000000     0.105095000000     0.086046666667    -1.01381    
O14      O      0.949475000000     0.105095000000     0.419380000000    -1.01381    
O14      O      0.949475000000     0.105095000000     0.752713333333    -1.01381    
O14      O      0.949475000000     0.605095000000     0.086046666667    -1.01381    
O14      O      0.949475000000     0.605095000000     0.419380000000    -1.01381    
O14      O      0.949475000000     0.605095000000     0.752713333333    -1.01381    
O15      O      0.059325000000     0.439860000000     0.036366666667    -0.613751   
O15      O      0.059325000000     0.439860000000     0.369700000000    -0.613751   
O15      O      0.059325000000     0.439860000000     0.703033333333    -0.613751   
O15      O      0.059325000000     0.939860000000     0.036366666667    -0.613751   
O15      O      0.059325000000     0.939860000000     0.369700000000    -0.613751   
O15      O      0.059325000000     0.939860000000     0.703033333333    -0.613751   
O15      O      0.559325000000     0.439860000000     0.036366666667    -0.613751   
O15      O      0.559325000000     0.439860000000     0.369700000000    -0.613751   
O15      O      0.559325000000     0.439860000000     0.703033333333    -0.613751   
O15      O      0.559325000000     0.939860000000     0.036366666667    -0.613751   
O15      O      0.559325000000     0.939860000000     0.369700000000    -0.613751   
O15      O      0.559325000000     0.939860000000     0.703033333333    -0.613751   
O16      O      0.050525000000     0.394905000000     0.086046666667    -1.01381    
O16      O      0.050525000000     0.394905000000     0.419380000000    -1.01381    
O16      O      0.050525000000     0.394905000000     0.752713333333    -1.01381    
O16      O      0.050525000000     0.894905000000     0.086046666667    -1.01381    
O16      O      0.050525000000     0.894905000000     0.419380000000    -1.01381    
O16      O      0.050525000000     0.894905000000     0.752713333333    -1.01381    
O16      O      0.550525000000     0.394905000000     0.086046666667    -1.01381    
O16      O      0.550525000000     0.394905000000     0.419380000000    -1.01381    
O16      O      0.550525000000     0.394905000000     0.752713333333    -1.01381    
O16      O      0.550525000000     0.894905000000     0.086046666667    -1.01381    
O16      O      0.550525000000     0.894905000000     0.419380000000    -1.01381    
O16      O      0.550525000000     0.894905000000     0.752713333333    -1.01381    
O17      O      0.309325000000     0.189860000000     0.203033333333    -0.61375    
O17      O      0.309325000000     0.189860000000     0.536366666667    -0.61375    
O17      O      0.309325000000     0.189860000000     0.869700000000    -0.61375    
O17      O      0.309325000000     0.689860000000     0.203033333333    -0.61375    
O17      O      0.309325000000     0.689860000000     0.536366666667    -0.61375    
O17      O      0.309325000000     0.689860000000     0.869700000000    -0.61375    
O17      O      0.809325000000     0.189860000000     0.203033333333    -0.61375    
O17      O      0.809325000000     0.189860000000     0.536366666667    -0.61375    
O17      O      0.809325000000     0.189860000000     0.869700000000    -0.61375    
O17      O      0.809325000000     0.689860000000     0.203033333333    -0.61375    
O17      O      0.809325000000     0.689860000000     0.536366666667    -0.61375    
O17      O      0.809325000000     0.689860000000     0.869700000000    -0.61375    
O18      O      0.060140000000     0.309325000000     0.119700000000    -1.01381    
O18      O      0.060140000000     0.309325000000     0.453033333333    -1.01381    
O18      O      0.060140000000     0.309325000000     0.786366666667    -1.01381    
O18      O      0.060140000000     0.809325000000     0.119700000000    -1.01381    
O18      O      0.060140000000     0.809325000000     0.453033333333    -1.01381    
O18      O      0.060140000000     0.809325000000     0.786366666667    -1.01381    
O18      O      0.560140000000     0.309325000000     0.119700000000    -1.01381    
O18      O      0.560140000000     0.309325000000     0.453033333333    -1.01381    
O18      O      0.560140000000     0.309325000000     0.786366666667    -1.01381    
O18      O      0.560140000000     0.809325000000     0.119700000000    -1.01381    
O18      O      0.560140000000     0.809325000000     0.453033333333    -1.01381    
O18      O      0.560140000000     0.809325000000     0.786366666667    -1.01381    
O19      O      0.440675000000     0.189860000000     0.046966666667    -1.01381    
O19      O      0.440675000000     0.189860000000     0.380300000000    -1.01381    
O19      O      0.440675000000     0.189860000000     0.713633333333    -1.01381    
O19      O      0.440675000000     0.689860000000     0.046966666667    -1.01381    
O19      O      0.440675000000     0.689860000000     0.380300000000    -1.01381    
O19      O      0.440675000000     0.689860000000     0.713633333333    -1.01381    
O19      O      0.940675000000     0.189860000000     0.046966666667    -1.01381    
O19      O      0.940675000000     0.189860000000     0.380300000000    -1.01381    
O19      O      0.940675000000     0.189860000000     0.713633333333    -1.01381    
O19      O      0.940675000000     0.689860000000     0.046966666667    -1.01381    
O19      O      0.940675000000     0.689860000000     0.380300000000    -1.01381    
O19      O      0.940675000000     0.689860000000     0.713633333333    -1.01381    
O20      O      0.355095000000     0.199475000000     0.080620000000    -0.555345   
O20      O      0.355095000000     0.199475000000     0.413953333333    -0.555345   
O20      O      0.355095000000     0.199475000000     0.747286666667    -0.555345   
O20      O      0.355095000000     0.699475000000     0.080620000000    -0.555345   
O20      O      0.355095000000     0.699475000000     0.413953333333    -0.555345   
O20      O      0.355095000000     0.699475000000     0.747286666667    -0.555345   
O20      O      0.855095000000     0.199475000000     0.080620000000    -0.555345   
O20      O      0.855095000000     0.199475000000     0.413953333333    -0.555345   
O20      O      0.855095000000     0.199475000000     0.747286666667    -0.555345   
O20      O      0.855095000000     0.699475000000     0.080620000000    -0.555345   
O20      O      0.855095000000     0.699475000000     0.413953333333    -0.555345   
O20      O      0.855095000000     0.699475000000     0.747286666667    -0.555345   
O21      O      0.189860000000     0.309325000000     0.130300000000    -1.01381    
O21      O      0.189860000000     0.309325000000     0.463633333333    -1.01381    
O21      O      0.189860000000     0.309325000000     0.796966666667    -1.01381    
O21      O      0.189860000000     0.809325000000     0.130300000000    -1.01381    
O21      O      0.189860000000     0.809325000000     0.463633333333    -1.01381    
O21      O      0.189860000000     0.809325000000     0.796966666667    -1.01381    
O21      O      0.689860000000     0.309325000000     0.130300000000    -1.01381    
O21      O      0.689860000000     0.309325000000     0.463633333333    -1.01381    
O21      O      0.689860000000     0.309325000000     0.796966666667    -1.01381    
O21      O      0.689860000000     0.809325000000     0.130300000000    -1.01381    
O21      O      0.689860000000     0.809325000000     0.463633333333    -1.01381    
O21      O      0.689860000000     0.809325000000     0.796966666667    -1.01381    
O22      O      0.310140000000     0.190675000000     0.130300000000    -0.613767   
O22      O      0.310140000000     0.190675000000     0.463633333333    -0.613767   
O22      O      0.310140000000     0.190675000000     0.796966666667    -0.613767   
O22      O      0.310140000000     0.690675000000     0.130300000000    -0.613767   
O22      O      0.310140000000     0.690675000000     0.463633333333    -0.613767   
O22      O      0.310140000000     0.690675000000     0.796966666667    -0.613767   
O22      O      0.810140000000     0.190675000000     0.130300000000    -0.613767   
O22      O      0.810140000000     0.190675000000     0.463633333333    -0.613767   
O22      O      0.810140000000     0.190675000000     0.796966666667    -0.613767   
O22      O      0.810140000000     0.690675000000     0.130300000000    -0.613767   
O22      O      0.810140000000     0.690675000000     0.463633333333    -0.613767   
O22      O      0.810140000000     0.690675000000     0.796966666667    -0.613767   
O23      O      0.144905000000     0.300525000000     0.080620000000    -1.0138     
O23      O      0.144905000000     0.300525000000     0.413953333333    -1.0138     
O23      O      0.144905000000     0.300525000000     0.747286666667    -1.0138     
O23      O      0.144905000000     0.800525000000     0.080620000000    -1.0138     
O23      O      0.144905000000     0.800525000000     0.413953333333    -1.0138     
O23      O      0.144905000000     0.800525000000     0.747286666667    -1.0138     
O23      O      0.644905000000     0.300525000000     0.080620000000    -1.0138     
O23      O      0.644905000000     0.300525000000     0.413953333333    -1.0138     
O23      O      0.644905000000     0.300525000000     0.747286666667    -1.0138     
O23      O      0.644905000000     0.800525000000     0.080620000000    -1.0138     
O23      O      0.644905000000     0.800525000000     0.413953333333    -1.0138     
O23      O      0.644905000000     0.800525000000     0.747286666667    -1.0138     
O24      O      0.439860000000     0.059325000000     0.296966666667     1.66596    
O24      O      0.439860000000     0.059325000000     0.630300000000     1.66596    
O24      O      0.439860000000     0.059325000000     0.963633333333     1.66596    
O24      O      0.439860000000     0.559325000000     0.296966666667     1.66596    
O24      O      0.439860000000     0.559325000000     0.630300000000     1.66596    
O24      O      0.439860000000     0.559325000000     0.963633333333     1.66596    
O24      O      0.939860000000     0.059325000000     0.296966666667     1.66596    
O24      O      0.939860000000     0.059325000000     0.630300000000     1.66596    
O24      O      0.939860000000     0.059325000000     0.963633333333     1.66596    
O24      O      0.939860000000     0.559325000000     0.296966666667     1.66596    
O24      O      0.939860000000     0.559325000000     0.630300000000     1.66596    
O24      O      0.939860000000     0.559325000000     0.963633333333     1.66596    
O25      O      0.394905000000     0.050525000000     0.247286666667     1.66597    
O25      O      0.394905000000     0.050525000000     0.580620000000     1.66597    
O25      O      0.394905000000     0.050525000000     0.913953333333     1.66597    
O25      O      0.394905000000     0.550525000000     0.247286666667     1.66597    
O25      O      0.394905000000     0.550525000000     0.580620000000     1.66597    
O25      O      0.394905000000     0.550525000000     0.913953333333     1.66597    
O25      O      0.894905000000     0.050525000000     0.247286666667     1.66597    
O25      O      0.894905000000     0.050525000000     0.580620000000     1.66597    
O25      O      0.894905000000     0.050525000000     0.913953333333     1.66597    
O25      O      0.894905000000     0.550525000000     0.247286666667     1.66597    
O25      O      0.894905000000     0.550525000000     0.580620000000     1.66597    
O25      O      0.894905000000     0.550525000000     0.913953333333     1.66597    
O26      O      0.105095000000     0.449475000000     0.247286666667     1.66596    
O26      O      0.105095000000     0.449475000000     0.580620000000     1.66596    
O26      O      0.105095000000     0.449475000000     0.913953333333     1.66596    
O26      O      0.105095000000     0.949475000000     0.247286666667     1.66596    
O26      O      0.105095000000     0.949475000000     0.580620000000     1.66596    
O26      O      0.105095000000     0.949475000000     0.913953333333     1.66596    
O26      O      0.605095000000     0.449475000000     0.247286666667     1.66596    
O26      O      0.605095000000     0.449475000000     0.580620000000     1.66596    
O26      O      0.605095000000     0.449475000000     0.913953333333     1.66596    
O26      O      0.605095000000     0.949475000000     0.247286666667     1.66596    
O26      O      0.605095000000     0.949475000000     0.580620000000     1.66596    
O26      O      0.605095000000     0.949475000000     0.913953333333     1.66596    
O27      O      0.060140000000     0.440675000000     0.296966666667     1.66586    
O27      O      0.060140000000     0.440675000000     0.630300000000     1.66586    
O27      O      0.060140000000     0.440675000000     0.963633333333     1.66586    
O27      O      0.060140000000     0.940675000000     0.296966666667     1.66586    
O27      O      0.060140000000     0.940675000000     0.630300000000     1.66586    
O27      O      0.060140000000     0.940675000000     0.963633333333     1.66586    
O27      O      0.560140000000     0.440675000000     0.296966666667     1.66586    
O27      O      0.560140000000     0.440675000000     0.630300000000     1.66586    
O27      O      0.560140000000     0.440675000000     0.963633333333     1.66586    
O27      O      0.560140000000     0.940675000000     0.296966666667     1.66586    
O27      O      0.560140000000     0.940675000000     0.630300000000     1.66586    
O27      O      0.560140000000     0.940675000000     0.963633333333     1.66586    
O28      O      0.059325000000     0.310140000000     0.046966666667     1.66595    
O28      O      0.059325000000     0.310140000000     0.380300000000     1.66595    
O28      O      0.059325000000     0.310140000000     0.713633333333     1.66595    
O28      O      0.059325000000     0.810140000000     0.046966666667     1.66595    
O28      O      0.059325000000     0.810140000000     0.380300000000     1.66595    
O28      O      0.059325000000     0.810140000000     0.713633333333     1.66595    
O28      O      0.559325000000     0.310140000000     0.046966666667     1.66595    
O28      O      0.559325000000     0.310140000000     0.380300000000     1.66595    
O28      O      0.559325000000     0.310140000000     0.713633333333     1.66595    
O28      O      0.559325000000     0.810140000000     0.046966666667     1.66595    
O28      O      0.559325000000     0.810140000000     0.380300000000     1.66595    
O28      O      0.559325000000     0.810140000000     0.713633333333     1.66595    
O29      O      0.050525000000     0.355095000000     0.330620000000     1.66584    
O29      O      0.050525000000     0.355095000000     0.663953333333     1.66584    
O29      O      0.050525000000     0.355095000000     0.997286666667     1.66584    
O29      O      0.050525000000     0.855095000000     0.330620000000     1.66584    
O29      O      0.050525000000     0.855095000000     0.663953333333     1.66584    
O29      O      0.050525000000     0.855095000000     0.997286666667     1.66584    
O29      O      0.550525000000     0.355095000000     0.330620000000     1.66584    
O29      O      0.550525000000     0.355095000000     0.663953333333     1.66584    
O29      O      0.550525000000     0.355095000000     0.997286666667     1.66584    
O29      O      0.550525000000     0.855095000000     0.330620000000     1.66584    
O29      O      0.550525000000     0.855095000000     0.663953333333     1.66584    
O29      O      0.550525000000     0.855095000000     0.997286666667     1.66584    
O30      O      0.309325000000     0.060140000000     0.213633333333     1.66584    
O30      O      0.309325000000     0.060140000000     0.546966666667     1.66584    
O30      O      0.309325000000     0.060140000000     0.880300000000     1.66584    
O30      O      0.309325000000     0.560140000000     0.213633333333     1.66584    
O30      O      0.309325000000     0.560140000000     0.546966666667     1.66584    
O30      O      0.309325000000     0.560140000000     0.880300000000     1.66584    
O30      O      0.809325000000     0.060140000000     0.213633333333     1.66584    
O30      O      0.809325000000     0.060140000000     0.546966666667     1.66584    
O30      O      0.809325000000     0.060140000000     0.880300000000     1.66584    
O30      O      0.809325000000     0.560140000000     0.213633333333     1.66584    
O30      O      0.809325000000     0.560140000000     0.546966666667     1.66584    
O30      O      0.809325000000     0.560140000000     0.880300000000     1.66584    
O31      O      0.125000000000     0.374150000000     0.125000000000     1.66586    
O31      O      0.125000000000     0.374150000000     0.458333333333     1.66586    
O31      O      0.125000000000     0.374150000000     0.791666666667     1.66586    
O31      O      0.125000000000     0.874150000000     0.125000000000     1.66586    
O31      O      0.125000000000     0.874150000000     0.458333333333     1.66586    
O31      O      0.125000000000     0.874150000000     0.791666666667     1.66586    
O31      O      0.625000000000     0.374150000000     0.125000000000     1.66586    
O31      O      0.625000000000     0.374150000000     0.458333333333     1.66586    
O31      O      0.625000000000     0.374150000000     0.791666666667     1.66586    
O31      O      0.625000000000     0.874150000000     0.125000000000     1.66586    
O31      O      0.625000000000     0.874150000000     0.458333333333     1.66586    
O31      O      0.625000000000     0.874150000000     0.791666666667     1.66586    
O32      O      0.300525000000     0.144905000000     0.252713333333    -0.171276   
O32      O      0.300525000000     0.144905000000     0.586046666667    -0.171276   
O32      O      0.300525000000     0.144905000000     0.919380000000    -0.171276   
O32      O      0.300525000000     0.644905000000     0.252713333333    -0.171276   
O32      O      0.300525000000     0.644905000000     0.586046666667    -0.171276   
O32      O      0.300525000000     0.644905000000     0.919380000000    -0.171276   
O32      O      0.800525000000     0.144905000000     0.252713333333    -0.171276   
O32      O      0.800525000000     0.144905000000     0.586046666667    -0.171276   
O32      O      0.800525000000     0.144905000000     0.919380000000    -0.171276   
O32      O      0.800525000000     0.644905000000     0.252713333333    -0.171276   
O32      O      0.800525000000     0.644905000000     0.586046666667    -0.171276   
O32      O      0.800525000000     0.644905000000     0.919380000000    -0.171276   
O33      O      0.374150000000     0.125000000000     0.208333333333    -0.171277   
O33      O      0.374150000000     0.125000000000     0.541666666667    -0.171277   
O33      O      0.374150000000     0.125000000000     0.875000000000    -0.171277   
O33      O      0.374150000000     0.625000000000     0.208333333333    -0.171277   
O33      O      0.374150000000     0.625000000000     0.541666666667    -0.171277   
O33      O      0.374150000000     0.625000000000     0.875000000000    -0.171277   
O33      O      0.874150000000     0.125000000000     0.208333333333    -0.171277   
O33      O      0.874150000000     0.125000000000     0.541666666667    -0.171277   
O33      O      0.874150000000     0.125000000000     0.875000000000    -0.171277   
O33      O      0.874150000000     0.625000000000     0.208333333333    -0.171277   
O33      O      0.874150000000     0.625000000000     0.541666666667    -0.171277   
O33      O      0.874150000000     0.625000000000     0.875000000000    -0.171277   
O34      O      0.300525000000     0.105095000000     0.163953333333    -0.020388   
O34      O      0.300525000000     0.105095000000     0.497286666667    -0.020388   
O34      O      0.300525000000     0.105095000000     0.830620000000    -0.020388   
O34      O      0.300525000000     0.605095000000     0.163953333333    -0.020388   
O34      O      0.300525000000     0.605095000000     0.497286666667    -0.020388   
O34      O      0.300525000000     0.605095000000     0.830620000000    -0.020388   
O34      O      0.800525000000     0.105095000000     0.163953333333    -0.020388   
O34      O      0.800525000000     0.105095000000     0.497286666667    -0.020388   
O34      O      0.800525000000     0.105095000000     0.830620000000    -0.020388   
O34      O      0.800525000000     0.605095000000     0.163953333333    -0.020388   
O34      O      0.800525000000     0.605095000000     0.497286666667    -0.020388   
O34      O      0.800525000000     0.605095000000     0.830620000000    -0.020388   
O35      O      0.124150000000     0.375000000000     0.041666666667     0.082221   
O35      O      0.124150000000     0.375000000000     0.375000000000     0.082221   
O35      O      0.124150000000     0.375000000000     0.708333333333     0.082221   
O35      O      0.124150000000     0.875000000000     0.041666666667     0.082221   
O35      O      0.124150000000     0.875000000000     0.375000000000     0.082221   
O35      O      0.124150000000     0.875000000000     0.708333333333     0.082221   
O35      O      0.624150000000     0.375000000000     0.041666666667     0.082221   
O35      O      0.624150000000     0.375000000000     0.375000000000     0.082221   
O35      O      0.624150000000     0.375000000000     0.708333333333     0.082221   
O35      O      0.624150000000     0.875000000000     0.041666666667     0.082221   
O35      O      0.624150000000     0.875000000000     0.375000000000     0.082221   
O35      O      0.624150000000     0.875000000000     0.708333333333     0.082221   
O36      O      0.375850000000     0.125000000000     0.041666666667    -0.120646   
O36      O      0.375850000000     0.125000000000     0.375000000000    -0.120646   
O36      O      0.375850000000     0.125000000000     0.708333333333    -0.120646   
O36      O      0.375850000000     0.625000000000     0.041666666667    -0.120646   
O36      O      0.375850000000     0.625000000000     0.375000000000    -0.120646   
O36      O      0.375850000000     0.625000000000     0.708333333333    -0.120646   
O36      O      0.875850000000     0.125000000000     0.041666666667    -0.120646   
O36      O      0.875850000000     0.125000000000     0.375000000000    -0.120646   
O36      O      0.875850000000     0.125000000000     0.708333333333    -0.120646   
O36      O      0.875850000000     0.625000000000     0.041666666667    -0.120646   
O36      O      0.875850000000     0.625000000000     0.375000000000    -0.120646   
O36      O      0.875850000000     0.625000000000     0.708333333333    -0.120646   
O37      O      0.190675000000     0.439860000000     0.213633333333     0.633045   
O37      O      0.190675000000     0.439860000000     0.546966666667     0.633045   
O37      O      0.190675000000     0.439860000000     0.880300000000     0.633045   
O37      O      0.190675000000     0.939860000000     0.213633333333     0.633045   
O37      O      0.190675000000     0.939860000000     0.546966666667     0.633045   
O37      O      0.190675000000     0.939860000000     0.880300000000     0.633045   
O37      O      0.690675000000     0.439860000000     0.213633333333     0.633045   
O37      O      0.690675000000     0.439860000000     0.546966666667     0.633045   
O37      O      0.690675000000     0.439860000000     0.880300000000     0.633045   
O37      O      0.690675000000     0.939860000000     0.213633333333     0.633045   
O37      O      0.690675000000     0.939860000000     0.546966666667     0.633045   
O37      O      0.690675000000     0.939860000000     0.880300000000     0.633045   
O38      O      0.125850000000     0.375000000000     0.208333333333    -0.020388   
O38      O      0.125850000000     0.375000000000     0.541666666667    -0.020388   
O38      O      0.125850000000     0.375000000000     0.875000000000    -0.020388   
O38      O      0.125850000000     0.875000000000     0.208333333333    -0.020388   
O38      O      0.125850000000     0.875000000000     0.541666666667    -0.020388   
O38      O      0.125850000000     0.875000000000     0.875000000000    -0.020388   
O38      O      0.625850000000     0.375000000000     0.208333333333    -0.020388   
O38      O      0.625850000000     0.375000000000     0.541666666667    -0.020388   
O38      O      0.625850000000     0.375000000000     0.875000000000    -0.020388   
O38      O      0.625850000000     0.875000000000     0.208333333333    -0.020388   
O38      O      0.625850000000     0.875000000000     0.541666666667    -0.020388   
O38      O      0.625850000000     0.875000000000     0.875000000000    -0.020388   
O39      O      0.199475000000     0.394905000000     0.163953333333    -0.171302   
O39      O      0.199475000000     0.394905000000     0.497286666667    -0.171302   
O39      O      0.199475000000     0.394905000000     0.830620000000    -0.171302   
O39      O      0.199475000000     0.894905000000     0.163953333333    -0.171302   
O39      O      0.199475000000     0.894905000000     0.497286666667    -0.171302   
O39      O      0.199475000000     0.894905000000     0.830620000000    -0.171302   
O39      O      0.699475000000     0.394905000000     0.163953333333    -0.171302   
O39      O      0.699475000000     0.394905000000     0.497286666667    -0.171302   
O39      O      0.699475000000     0.394905000000     0.830620000000    -0.171302   
O39      O      0.699475000000     0.894905000000     0.163953333333    -0.171302   
O39      O      0.699475000000     0.894905000000     0.497286666667    -0.171302   
O39      O      0.699475000000     0.894905000000     0.830620000000    -0.171302   
O40      O      0.375000000000     0.124150000000     0.291666666667    -0.02036    
O40      O      0.375000000000     0.124150000000     0.625000000000    -0.02036    
O40      O      0.375000000000     0.124150000000     0.958333333333    -0.02036    
O40      O      0.375000000000     0.624150000000     0.291666666667    -0.02036    
O40      O      0.375000000000     0.624150000000     0.625000000000    -0.02036    
O40      O      0.375000000000     0.624150000000     0.958333333333    -0.02036    
O40      O      0.875000000000     0.124150000000     0.291666666667    -0.02036    
O40      O      0.875000000000     0.124150000000     0.625000000000    -0.02036    
O40      O      0.875000000000     0.124150000000     0.958333333333    -0.02036    
O40      O      0.875000000000     0.624150000000     0.291666666667    -0.02036    
O40      O      0.875000000000     0.624150000000     0.625000000000    -0.02036    
O40      O      0.875000000000     0.624150000000     0.958333333333    -0.02036    
V1       V      0.345285000000     0.095285000000     0.250000000000     0.08222    
V1       V      0.345285000000     0.095285000000     0.583333333333     0.08222    
V1       V      0.345285000000     0.095285000000     0.916666666667     0.08222    
V1       V      0.345285000000     0.595285000000     0.250000000000     0.08222    
V1       V      0.345285000000     0.595285000000     0.583333333333     0.08222    
V1       V      0.345285000000     0.595285000000     0.916666666667     0.08222    
V1       V      0.845285000000     0.095285000000     0.250000000000     0.08222    
V1       V      0.845285000000     0.095285000000     0.583333333333     0.08222    
V1       V      0.845285000000     0.095285000000     0.916666666667     0.08222    
V1       V      0.845285000000     0.595285000000     0.250000000000     0.08222    
V1       V      0.845285000000     0.595285000000     0.583333333333     0.08222    
V1       V      0.845285000000     0.595285000000     0.916666666667     0.08222    
V2       V      0.404715000000     0.154715000000     0.083333333333    -0.120647   
V2       V      0.404715000000     0.154715000000     0.416666666667    -0.120647   
V2       V      0.404715000000     0.154715000000     0.750000000000    -0.120647   
V2       V      0.404715000000     0.654715000000     0.083333333333    -0.120647   
V2       V      0.404715000000     0.654715000000     0.416666666667    -0.120647   
V2       V      0.404715000000     0.654715000000     0.750000000000    -0.120647   
V2       V      0.904715000000     0.154715000000     0.083333333333    -0.120647   
V2       V      0.904715000000     0.154715000000     0.416666666667    -0.120647   
V2       V      0.904715000000     0.154715000000     0.750000000000    -0.120647   
V2       V      0.904715000000     0.654715000000     0.083333333333    -0.120647   
V2       V      0.904715000000     0.654715000000     0.416666666667    -0.120647   
V2       V      0.904715000000     0.654715000000     0.750000000000    -0.120647   
V3       V      0.404715000000     0.095285000000     0.000000000000     0.63301    
V3       V      0.404715000000     0.095285000000     0.333333333333     0.63301    
V3       V      0.404715000000     0.095285000000     0.666666666667     0.63301    
V3       V      0.404715000000     0.595285000000     0.000000000000     0.63301    
V3       V      0.404715000000     0.595285000000     0.333333333333     0.63301    
V3       V      0.404715000000     0.595285000000     0.666666666667     0.63301    
V3       V      0.904715000000     0.095285000000     0.000000000000     0.63301    
V3       V      0.904715000000     0.095285000000     0.333333333333     0.63301    
V3       V      0.904715000000     0.095285000000     0.666666666667     0.63301    
V3       V      0.904715000000     0.595285000000     0.000000000000     0.63301    
V3       V      0.904715000000     0.595285000000     0.333333333333     0.63301    
V3       V      0.904715000000     0.595285000000     0.666666666667     0.63301    
V4       V      0.095285000000     0.404715000000     0.000000000000    -0.020359   
V4       V      0.095285000000     0.404715000000     0.333333333333    -0.020359   
V4       V      0.095285000000     0.404715000000     0.666666666667    -0.020359   
V4       V      0.095285000000     0.904715000000     0.000000000000    -0.020359   
V4       V      0.095285000000     0.904715000000     0.333333333333    -0.020359   
V4       V      0.095285000000     0.904715000000     0.666666666667    -0.020359   
V4       V      0.595285000000     0.404715000000     0.000000000000    -0.020359   
V4       V      0.595285000000     0.404715000000     0.333333333333    -0.020359   
V4       V      0.595285000000     0.404715000000     0.666666666667    -0.020359   
V4       V      0.595285000000     0.904715000000     0.000000000000    -0.020359   
V4       V      0.595285000000     0.904715000000     0.333333333333    -0.020359   
V4       V      0.595285000000     0.904715000000     0.666666666667    -0.020359   
V5       V      0.345285000000     0.154715000000     0.166666666667    -0.171279   
V5       V      0.345285000000     0.154715000000     0.500000000000    -0.171279   
V5       V      0.345285000000     0.154715000000     0.833333333333    -0.171279   
V5       V      0.345285000000     0.654715000000     0.166666666667    -0.171279   
V5       V      0.345285000000     0.654715000000     0.500000000000    -0.171279   
V5       V      0.345285000000     0.654715000000     0.833333333333    -0.171279   
V5       V      0.845285000000     0.154715000000     0.166666666667    -0.171279   
V5       V      0.845285000000     0.154715000000     0.500000000000    -0.171279   
V5       V      0.845285000000     0.154715000000     0.833333333333    -0.171279   
V5       V      0.845285000000     0.654715000000     0.166666666667    -0.171279   
V5       V      0.845285000000     0.654715000000     0.500000000000    -0.171279   
V5       V      0.845285000000     0.654715000000     0.833333333333    -0.171279   
V6       V      0.154715000000     0.404715000000     0.250000000000     0.633045   
V6       V      0.154715000000     0.404715000000     0.583333333333     0.633045   
V6       V      0.154715000000     0.404715000000     0.916666666667     0.633045   
V6       V      0.154715000000     0.904715000000     0.250000000000     0.633045   
V6       V      0.154715000000     0.904715000000     0.583333333333     0.633045   
V6       V      0.154715000000     0.904715000000     0.916666666667     0.633045   
V6       V      0.654715000000     0.404715000000     0.250000000000     0.633045   
V6       V      0.654715000000     0.404715000000     0.583333333333     0.633045   
V6       V      0.654715000000     0.404715000000     0.916666666667     0.633045   
V6       V      0.654715000000     0.904715000000     0.250000000000     0.633045   
V6       V      0.654715000000     0.904715000000     0.583333333333     0.633045   
V6       V      0.654715000000     0.904715000000     0.916666666667     0.633045   
V7       V      0.095285000000     0.345285000000     0.083333333333    -0.171301   
V7       V      0.095285000000     0.345285000000     0.416666666667    -0.171301   
V7       V      0.095285000000     0.345285000000     0.750000000000    -0.171301   
V7       V      0.095285000000     0.845285000000     0.083333333333    -0.171301   
V7       V      0.095285000000     0.845285000000     0.416666666667    -0.171301   
V7       V      0.095285000000     0.845285000000     0.750000000000    -0.171301   
V7       V      0.595285000000     0.345285000000     0.083333333333    -0.171301   
V7       V      0.595285000000     0.345285000000     0.416666666667    -0.171301   
V7       V      0.595285000000     0.345285000000     0.750000000000    -0.171301   
V7       V      0.595285000000     0.845285000000     0.083333333333    -0.171301   
V7       V      0.595285000000     0.845285000000     0.416666666667    -0.171301   
V7       V      0.595285000000     0.845285000000     0.750000000000    -0.171301   
V8       V      0.154715000000     0.345285000000     0.166666666667     0.633047   
V8       V      0.154715000000     0.345285000000     0.500000000000     0.633047   
V8       V      0.154715000000     0.345285000000     0.833333333333     0.633047   
V8       V      0.154715000000     0.845285000000     0.166666666667     0.633047   
V8       V      0.154715000000     0.845285000000     0.500000000000     0.633047   
V8       V      0.154715000000     0.845285000000     0.833333333333     0.633047   
V8       V      0.654715000000     0.345285000000     0.166666666667     0.633047   
V8       V      0.654715000000     0.345285000000     0.500000000000     0.633047   
V8       V      0.654715000000     0.345285000000     0.833333333333     0.633047   
V8       V      0.654715000000     0.845285000000     0.166666666667     0.633047   
V8       V      0.654715000000     0.845285000000     0.500000000000     0.633047   
V8       V      0.654715000000     0.845285000000     0.833333333333     0.633047   


