data_XEWFAI_clean_DDEC

_audit_creation_method RASPA-1.0
_audit_creation_date 2025-9-8
_audit_author_name ''

_cell_length_a    8.619
_cell_length_b    17.818
_cell_length_c    18.385
_cell_angle_alpha 95.672
_cell_angle_beta  102.223
_cell_angle_gamma 101.053
_cell_volume      42871.9

_symmetry_cell_setting          triclinic
_symmetry_space_group_name_Hall 'P 1'
_symmetry_space_group_name_H-M  'P 1'
_symmetry_Int_Tables_number     1

_symmetry_equiv_pos_as_xyz 'x,y,z'

loop_
_atom_site_label
_atom_site_type_symbol
_atom_site_fract_x
_atom_site_fract_y
_atom_site_fract_z
_atom_site_charge
C1       C      0.191225000000     0.299850000000     0.056850000000     0.600239   
C1       C      0.191225000000     0.299850000000     0.556850000000     0.600239   
C1       C      0.191225000000     0.799850000000     0.056850000000     0.600239   
C1       C      0.191225000000     0.799850000000     0.556850000000     0.600239   
C1       C      0.441225000000     0.299850000000     0.056850000000     0.600239   
C1       C      0.441225000000     0.299850000000     0.556850000000     0.600239   
C1       C      0.441225000000     0.799850000000     0.056850000000     0.600239   
C1       C      0.441225000000     0.799850000000     0.556850000000     0.600239   
C1       C      0.691225000000     0.299850000000     0.056850000000     0.600239   
C1       C      0.691225000000     0.299850000000     0.556850000000     0.600239   
C1       C      0.691225000000     0.799850000000     0.056850000000     0.600239   
C1       C      0.691225000000     0.799850000000     0.556850000000     0.600239   
C1       C      0.941225000000     0.299850000000     0.056850000000     0.600239   
C1       C      0.941225000000     0.299850000000     0.556850000000     0.600239   
C1       C      0.941225000000     0.799850000000     0.056850000000     0.600239   
C1       C      0.941225000000     0.799850000000     0.556850000000     0.600239   
C2       C      0.056750000000     0.455500000000     0.022550000000     0.627877   
C2       C      0.056750000000     0.455500000000     0.522550000000     0.627877   
C2       C      0.056750000000     0.955500000000     0.022550000000     0.627877   
C2       C      0.056750000000     0.955500000000     0.522550000000     0.627877   
C2       C      0.306750000000     0.455500000000     0.022550000000     0.627877   
C2       C      0.306750000000     0.455500000000     0.522550000000     0.627877   
C2       C      0.306750000000     0.955500000000     0.022550000000     0.627877   
C2       C      0.306750000000     0.955500000000     0.522550000000     0.627877   
C2       C      0.556750000000     0.455500000000     0.022550000000     0.627877   
C2       C      0.556750000000     0.455500000000     0.522550000000     0.627877   
C2       C      0.556750000000     0.955500000000     0.022550000000     0.627877   
C2       C      0.556750000000     0.955500000000     0.522550000000     0.627877   
C2       C      0.806750000000     0.455500000000     0.022550000000     0.627877   
C2       C      0.806750000000     0.455500000000     0.522550000000     0.627877   
C2       C      0.806750000000     0.955500000000     0.022550000000     0.627877   
C2       C      0.806750000000     0.955500000000     0.522550000000     0.627877   
C3       C      0.053225000000     0.435050000000     0.483500000000    -0.272516   
C3       C      0.053225000000     0.435050000000     0.983500000000    -0.272516   
C3       C      0.053225000000     0.935050000000     0.483500000000    -0.272516   
C3       C      0.053225000000     0.935050000000     0.983500000000    -0.272516   
C3       C      0.303225000000     0.435050000000     0.483500000000    -0.272516   
C3       C      0.303225000000     0.435050000000     0.983500000000    -0.272516   
C3       C      0.303225000000     0.935050000000     0.483500000000    -0.272516   
C3       C      0.303225000000     0.935050000000     0.983500000000    -0.272516   
C3       C      0.553225000000     0.435050000000     0.483500000000    -0.272516   
C3       C      0.553225000000     0.435050000000     0.983500000000    -0.272516   
C3       C      0.553225000000     0.935050000000     0.483500000000    -0.272516   
C3       C      0.553225000000     0.935050000000     0.983500000000    -0.272516   
C3       C      0.803225000000     0.435050000000     0.483500000000    -0.272516   
C3       C      0.803225000000     0.435050000000     0.983500000000    -0.272516   
C3       C      0.803225000000     0.935050000000     0.483500000000    -0.272516   
C3       C      0.803225000000     0.935050000000     0.983500000000    -0.272516   
C4       C      0.057850000000     0.476950000000     0.435650000000    -0.134904   
C4       C      0.057850000000     0.476950000000     0.935650000000    -0.134904   
C4       C      0.057850000000     0.976950000000     0.435650000000    -0.134904   
C4       C      0.057850000000     0.976950000000     0.935650000000    -0.134904   
C4       C      0.307850000000     0.476950000000     0.435650000000    -0.134904   
C4       C      0.307850000000     0.476950000000     0.935650000000    -0.134904   
C4       C      0.307850000000     0.976950000000     0.435650000000    -0.134904   
C4       C      0.307850000000     0.976950000000     0.935650000000    -0.134904   
C4       C      0.557850000000     0.476950000000     0.435650000000    -0.134904   
C4       C      0.557850000000     0.476950000000     0.935650000000    -0.134904   
C4       C      0.557850000000     0.976950000000     0.435650000000    -0.134904   
C4       C      0.557850000000     0.976950000000     0.935650000000    -0.134904   
C4       C      0.807850000000     0.476950000000     0.435650000000    -0.134904   
C4       C      0.807850000000     0.476950000000     0.935650000000    -0.134904   
C4       C      0.807850000000     0.976950000000     0.435650000000    -0.134904   
C4       C      0.807850000000     0.976950000000     0.935650000000    -0.134904   
C5       C      0.099525000000     0.428600000000     0.441750000000    -0.138685   
C5       C      0.099525000000     0.428600000000     0.941750000000    -0.138685   
C5       C      0.099525000000     0.928600000000     0.441750000000    -0.138685   
C5       C      0.099525000000     0.928600000000     0.941750000000    -0.138685   
C5       C      0.349525000000     0.428600000000     0.441750000000    -0.138685   
C5       C      0.349525000000     0.428600000000     0.941750000000    -0.138685   
C5       C      0.349525000000     0.928600000000     0.441750000000    -0.138685   
C5       C      0.349525000000     0.928600000000     0.941750000000    -0.138685   
C5       C      0.599525000000     0.428600000000     0.441750000000    -0.138685   
C5       C      0.599525000000     0.428600000000     0.941750000000    -0.138685   
C5       C      0.599525000000     0.928600000000     0.441750000000    -0.138685   
C5       C      0.599525000000     0.928600000000     0.941750000000    -0.138685   
C5       C      0.849525000000     0.428600000000     0.441750000000    -0.138685   
C5       C      0.849525000000     0.428600000000     0.941750000000    -0.138685   
C5       C      0.849525000000     0.928600000000     0.441750000000    -0.138685   
C5       C      0.849525000000     0.928600000000     0.941750000000    -0.138685   
C6       C      0.128575000000     0.409150000000     0.466300000000    -0.11037    
C6       C      0.128575000000     0.409150000000     0.966300000000    -0.11037    
C6       C      0.128575000000     0.909150000000     0.466300000000    -0.11037    
C6       C      0.128575000000     0.909150000000     0.966300000000    -0.11037    
C6       C      0.378575000000     0.409150000000     0.466300000000    -0.11037    
C6       C      0.378575000000     0.409150000000     0.966300000000    -0.11037    
C6       C      0.378575000000     0.909150000000     0.466300000000    -0.11037    
C6       C      0.378575000000     0.909150000000     0.966300000000    -0.11037    
C6       C      0.628575000000     0.409150000000     0.466300000000    -0.11037    
C6       C      0.628575000000     0.409150000000     0.966300000000    -0.11037    
C6       C      0.628575000000     0.909150000000     0.466300000000    -0.11037    
C6       C      0.628575000000     0.909150000000     0.966300000000    -0.11037    
C6       C      0.878575000000     0.409150000000     0.466300000000    -0.11037    
C6       C      0.878575000000     0.409150000000     0.966300000000    -0.11037    
C6       C      0.878575000000     0.909150000000     0.466300000000    -0.11037    
C6       C      0.878575000000     0.909150000000     0.966300000000    -0.11037    
C7       C      0.168400000000     0.434550000000     0.491000000000    -0.203346   
C7       C      0.168400000000     0.434550000000     0.991000000000    -0.203346   
C7       C      0.168400000000     0.934550000000     0.491000000000    -0.203346   
C7       C      0.168400000000     0.934550000000     0.991000000000    -0.203346   
C7       C      0.418400000000     0.434550000000     0.491000000000    -0.203346   
C7       C      0.418400000000     0.434550000000     0.991000000000    -0.203346   
C7       C      0.418400000000     0.934550000000     0.491000000000    -0.203346   
C7       C      0.418400000000     0.934550000000     0.991000000000    -0.203346   
C7       C      0.668400000000     0.434550000000     0.491000000000    -0.203346   
C7       C      0.668400000000     0.434550000000     0.991000000000    -0.203346   
C7       C      0.668400000000     0.934550000000     0.491000000000    -0.203346   
C7       C      0.668400000000     0.934550000000     0.991000000000    -0.203346   
C7       C      0.918400000000     0.434550000000     0.491000000000    -0.203346   
C7       C      0.918400000000     0.434550000000     0.991000000000    -0.203346   
C7       C      0.918400000000     0.934550000000     0.491000000000    -0.203346   
C7       C      0.918400000000     0.934550000000     0.991000000000    -0.203346   
C8       C      0.146250000000     0.437450000000     0.050300000000    -0.137032   
C8       C      0.146250000000     0.437450000000     0.550300000000    -0.137032   
C8       C      0.146250000000     0.937450000000     0.050300000000    -0.137032   
C8       C      0.146250000000     0.937450000000     0.550300000000    -0.137032   
C8       C      0.396250000000     0.437450000000     0.050300000000    -0.137032   
C8       C      0.396250000000     0.437450000000     0.550300000000    -0.137032   
C8       C      0.396250000000     0.937450000000     0.050300000000    -0.137032   
C8       C      0.396250000000     0.937450000000     0.550300000000    -0.137032   
C8       C      0.646250000000     0.437450000000     0.050300000000    -0.137032   
C8       C      0.646250000000     0.437450000000     0.550300000000    -0.137032   
C8       C      0.646250000000     0.937450000000     0.050300000000    -0.137032   
C8       C      0.646250000000     0.937450000000     0.550300000000    -0.137032   
C8       C      0.896250000000     0.437450000000     0.050300000000    -0.137032   
C8       C      0.896250000000     0.437450000000     0.550300000000    -0.137032   
C8       C      0.896250000000     0.937450000000     0.050300000000    -0.137032   
C8       C      0.896250000000     0.937450000000     0.550300000000    -0.137032   
C9       C      0.170325000000     0.410400000000     0.071050000000     0.621552   
C9       C      0.170325000000     0.410400000000     0.571050000000     0.621552   
C9       C      0.170325000000     0.910400000000     0.071050000000     0.621552   
C9       C      0.170325000000     0.910400000000     0.571050000000     0.621552   
C9       C      0.420325000000     0.410400000000     0.071050000000     0.621552   
C9       C      0.420325000000     0.410400000000     0.571050000000     0.621552   
C9       C      0.420325000000     0.910400000000     0.071050000000     0.621552   
C9       C      0.420325000000     0.910400000000     0.571050000000     0.621552   
C9       C      0.670325000000     0.410400000000     0.071050000000     0.621552   
C9       C      0.670325000000     0.410400000000     0.571050000000     0.621552   
C9       C      0.670325000000     0.910400000000     0.071050000000     0.621552   
C9       C      0.670325000000     0.910400000000     0.571050000000     0.621552   
C9       C      0.920325000000     0.410400000000     0.071050000000     0.621552   
C9       C      0.920325000000     0.410400000000     0.571050000000     0.621552   
C9       C      0.920325000000     0.910400000000     0.071050000000     0.621552   
C9       C      0.920325000000     0.910400000000     0.571050000000     0.621552   
C10      C      0.043600000000     0.007550000000     0.190200000000    -0.282486   
C10      C      0.043600000000     0.007550000000     0.690200000000    -0.282486   
C10      C      0.043600000000     0.507550000000     0.190200000000    -0.282486   
C10      C      0.043600000000     0.507550000000     0.690200000000    -0.282486   
C10      C      0.293600000000     0.007550000000     0.190200000000    -0.282486   
C10      C      0.293600000000     0.007550000000     0.690200000000    -0.282486   
C10      C      0.293600000000     0.507550000000     0.190200000000    -0.282486   
C10      C      0.293600000000     0.507550000000     0.690200000000    -0.282486   
C10      C      0.543600000000     0.007550000000     0.190200000000    -0.282486   
C10      C      0.543600000000     0.007550000000     0.690200000000    -0.282486   
C10      C      0.543600000000     0.507550000000     0.190200000000    -0.282486   
C10      C      0.543600000000     0.507550000000     0.690200000000    -0.282486   
C10      C      0.793600000000     0.007550000000     0.190200000000    -0.282486   
C10      C      0.793600000000     0.007550000000     0.690200000000    -0.282486   
C10      C      0.793600000000     0.507550000000     0.190200000000    -0.282486   
C10      C      0.793600000000     0.507550000000     0.690200000000    -0.282486   
C11      C      0.228000000000     0.421400000000     0.261650000000    -0.113184   
C11      C      0.228000000000     0.421400000000     0.761650000000    -0.113184   
C11      C      0.228000000000     0.921400000000     0.261650000000    -0.113184   
C11      C      0.228000000000     0.921400000000     0.761650000000    -0.113184   
C11      C      0.478000000000     0.421400000000     0.261650000000    -0.113184   
C11      C      0.478000000000     0.421400000000     0.761650000000    -0.113184   
C11      C      0.478000000000     0.921400000000     0.261650000000    -0.113184   
C11      C      0.478000000000     0.921400000000     0.761650000000    -0.113184   
C11      C      0.728000000000     0.421400000000     0.261650000000    -0.113184   
C11      C      0.728000000000     0.421400000000     0.761650000000    -0.113184   
C11      C      0.728000000000     0.921400000000     0.261650000000    -0.113184   
C11      C      0.728000000000     0.921400000000     0.761650000000    -0.113184   
C11      C      0.978000000000     0.421400000000     0.261650000000    -0.113184   
C11      C      0.978000000000     0.421400000000     0.761650000000    -0.113184   
C11      C      0.978000000000     0.921400000000     0.261650000000    -0.113184   
C11      C      0.978000000000     0.921400000000     0.761650000000    -0.113184   
C12      C      0.187175000000     0.429300000000     0.242200000000    -0.137033   
C12      C      0.187175000000     0.429300000000     0.742200000000    -0.137033   
C12      C      0.187175000000     0.929300000000     0.242200000000    -0.137033   
C12      C      0.187175000000     0.929300000000     0.742200000000    -0.137033   
C12      C      0.437175000000     0.429300000000     0.242200000000    -0.137033   
C12      C      0.437175000000     0.429300000000     0.742200000000    -0.137033   
C12      C      0.437175000000     0.929300000000     0.242200000000    -0.137033   
C12      C      0.437175000000     0.929300000000     0.742200000000    -0.137033   
C12      C      0.687175000000     0.429300000000     0.242200000000    -0.137033   
C12      C      0.687175000000     0.429300000000     0.742200000000    -0.137033   
C12      C      0.687175000000     0.929300000000     0.242200000000    -0.137033   
C12      C      0.687175000000     0.929300000000     0.742200000000    -0.137033   
C12      C      0.937175000000     0.429300000000     0.242200000000    -0.137033   
C12      C      0.937175000000     0.429300000000     0.742200000000    -0.137033   
C12      C      0.937175000000     0.929300000000     0.242200000000    -0.137033   
C12      C      0.937175000000     0.929300000000     0.742200000000    -0.137033   
C13      C      0.175325000000     0.488400000000     0.272300000000     0.637563   
C13      C      0.175325000000     0.488400000000     0.772300000000     0.637563   
C13      C      0.175325000000     0.988400000000     0.272300000000     0.637563   
C13      C      0.175325000000     0.988400000000     0.772300000000     0.637563   
C13      C      0.425325000000     0.488400000000     0.272300000000     0.637563   
C13      C      0.425325000000     0.488400000000     0.772300000000     0.637563   
C13      C      0.425325000000     0.988400000000     0.272300000000     0.637563   
C13      C      0.425325000000     0.988400000000     0.772300000000     0.637563   
C13      C      0.675325000000     0.488400000000     0.272300000000     0.637563   
C13      C      0.675325000000     0.488400000000     0.772300000000     0.637563   
C13      C      0.675325000000     0.988400000000     0.272300000000     0.637563   
C13      C      0.675325000000     0.988400000000     0.772300000000     0.637563   
C13      C      0.925325000000     0.488400000000     0.272300000000     0.637563   
C13      C      0.925325000000     0.488400000000     0.772300000000     0.637563   
C13      C      0.925325000000     0.988400000000     0.272300000000     0.637563   
C13      C      0.925325000000     0.988400000000     0.772300000000     0.637563   
C14      C      0.164325000000     0.477050000000     0.204250000000    -0.300524   
C14      C      0.164325000000     0.477050000000     0.704250000000    -0.300524   
C14      C      0.164325000000     0.977050000000     0.204250000000    -0.300524   
C14      C      0.164325000000     0.977050000000     0.704250000000    -0.300524   
C14      C      0.414325000000     0.477050000000     0.204250000000    -0.300524   
C14      C      0.414325000000     0.477050000000     0.704250000000    -0.300524   
C14      C      0.414325000000     0.977050000000     0.204250000000    -0.300524   
C14      C      0.414325000000     0.977050000000     0.704250000000    -0.300524   
C14      C      0.664325000000     0.477050000000     0.204250000000    -0.300524   
C14      C      0.664325000000     0.477050000000     0.704250000000    -0.300524   
C14      C      0.664325000000     0.977050000000     0.204250000000    -0.300524   
C14      C      0.664325000000     0.977050000000     0.704250000000    -0.300524   
C14      C      0.914325000000     0.477050000000     0.204250000000    -0.300524   
C14      C      0.914325000000     0.477050000000     0.704250000000    -0.300524   
C14      C      0.914325000000     0.977050000000     0.204250000000    -0.300524   
C14      C      0.914325000000     0.977050000000     0.704250000000    -0.300524   
C15      C      0.178100000000     0.464950000000     0.168900000000    -0.14052    
C15      C      0.178100000000     0.464950000000     0.668900000000    -0.14052    
C15      C      0.178100000000     0.964950000000     0.168900000000    -0.14052    
C15      C      0.178100000000     0.964950000000     0.668900000000    -0.14052    
C15      C      0.428100000000     0.464950000000     0.168900000000    -0.14052    
C15      C      0.428100000000     0.464950000000     0.668900000000    -0.14052    
C15      C      0.428100000000     0.964950000000     0.168900000000    -0.14052    
C15      C      0.428100000000     0.964950000000     0.668900000000    -0.14052    
C15      C      0.678100000000     0.464950000000     0.168900000000    -0.14052    
C15      C      0.678100000000     0.464950000000     0.668900000000    -0.14052    
C15      C      0.678100000000     0.964950000000     0.168900000000    -0.14052    
C15      C      0.678100000000     0.964950000000     0.668900000000    -0.14052    
C15      C      0.928100000000     0.464950000000     0.168900000000    -0.14052    
C15      C      0.928100000000     0.464950000000     0.668900000000    -0.14052    
C15      C      0.928100000000     0.964950000000     0.168900000000    -0.14052    
C15      C      0.928100000000     0.964950000000     0.668900000000    -0.14052    
C16      C      0.219325000000     0.488300000000     0.164750000000    -0.105325   
C16      C      0.219325000000     0.488300000000     0.664750000000    -0.105325   
C16      C      0.219325000000     0.988300000000     0.164750000000    -0.105325   
C16      C      0.219325000000     0.988300000000     0.664750000000    -0.105325   
C16      C      0.469325000000     0.488300000000     0.164750000000    -0.105325   
C16      C      0.469325000000     0.488300000000     0.664750000000    -0.105325   
C16      C      0.469325000000     0.988300000000     0.164750000000    -0.105325   
C16      C      0.469325000000     0.988300000000     0.664750000000    -0.105325   
C16      C      0.719325000000     0.488300000000     0.164750000000    -0.105325   
C16      C      0.719325000000     0.488300000000     0.664750000000    -0.105325   
C16      C      0.719325000000     0.988300000000     0.164750000000    -0.105325   
C16      C      0.719325000000     0.988300000000     0.664750000000    -0.105325   
C16      C      0.969325000000     0.488300000000     0.164750000000    -0.105325   
C16      C      0.969325000000     0.488300000000     0.664750000000    -0.105325   
C16      C      0.969325000000     0.988300000000     0.164750000000    -0.105325   
C16      C      0.969325000000     0.988300000000     0.664750000000    -0.105325   
C17      C      0.008375000000     0.440300000000     0.183450000000    -0.21314    
C17      C      0.008375000000     0.440300000000     0.683450000000    -0.21314    
C17      C      0.008375000000     0.940300000000     0.183450000000    -0.21314    
C17      C      0.008375000000     0.940300000000     0.683450000000    -0.21314    
C17      C      0.258375000000     0.440300000000     0.183450000000    -0.21314    
C17      C      0.258375000000     0.440300000000     0.683450000000    -0.21314    
C17      C      0.258375000000     0.940300000000     0.183450000000    -0.21314    
C17      C      0.258375000000     0.940300000000     0.683450000000    -0.21314    
C17      C      0.508375000000     0.440300000000     0.183450000000    -0.21314    
C17      C      0.508375000000     0.440300000000     0.683450000000    -0.21314    
C17      C      0.508375000000     0.940300000000     0.183450000000    -0.21314    
C17      C      0.508375000000     0.940300000000     0.683450000000    -0.21314    
C17      C      0.758375000000     0.440300000000     0.183450000000    -0.21314    
C17      C      0.758375000000     0.440300000000     0.683450000000    -0.21314    
C17      C      0.758375000000     0.940300000000     0.183450000000    -0.21314    
C17      C      0.758375000000     0.940300000000     0.683450000000    -0.21314    
C18      C      0.012250000000     0.424700000000     0.143800000000    -0.116478   
C18      C      0.012250000000     0.424700000000     0.643800000000    -0.116478   
C18      C      0.012250000000     0.924700000000     0.143800000000    -0.116478   
C18      C      0.012250000000     0.924700000000     0.643800000000    -0.116478   
C18      C      0.262250000000     0.424700000000     0.143800000000    -0.116478   
C18      C      0.262250000000     0.424700000000     0.643800000000    -0.116478   
C18      C      0.262250000000     0.924700000000     0.143800000000    -0.116478   
C18      C      0.262250000000     0.924700000000     0.643800000000    -0.116478   
C18      C      0.512250000000     0.424700000000     0.143800000000    -0.116478   
C18      C      0.512250000000     0.424700000000     0.643800000000    -0.116478   
C18      C      0.512250000000     0.924700000000     0.143800000000    -0.116478   
C18      C      0.512250000000     0.924700000000     0.643800000000    -0.116478   
C18      C      0.762250000000     0.424700000000     0.143800000000    -0.116478   
C18      C      0.762250000000     0.424700000000     0.643800000000    -0.116478   
C18      C      0.762250000000     0.924700000000     0.143800000000    -0.116478   
C18      C      0.762250000000     0.924700000000     0.643800000000    -0.116478   
C19      C      0.070250000000     0.341050000000     0.054300000000    -0.292572   
C19      C      0.070250000000     0.341050000000     0.554300000000    -0.292572   
C19      C      0.070250000000     0.841050000000     0.054300000000    -0.292572   
C19      C      0.070250000000     0.841050000000     0.554300000000    -0.292572   
C19      C      0.320250000000     0.341050000000     0.054300000000    -0.292572   
C19      C      0.320250000000     0.341050000000     0.554300000000    -0.292572   
C19      C      0.320250000000     0.841050000000     0.054300000000    -0.292572   
C19      C      0.320250000000     0.841050000000     0.554300000000    -0.292572   
C19      C      0.570250000000     0.341050000000     0.054300000000    -0.292572   
C19      C      0.570250000000     0.341050000000     0.554300000000    -0.292572   
C19      C      0.570250000000     0.841050000000     0.054300000000    -0.292572   
C19      C      0.570250000000     0.841050000000     0.554300000000    -0.292572   
C19      C      0.820250000000     0.341050000000     0.054300000000    -0.292572   
C19      C      0.820250000000     0.341050000000     0.554300000000    -0.292572   
C19      C      0.820250000000     0.841050000000     0.054300000000    -0.292572   
C19      C      0.820250000000     0.841050000000     0.554300000000    -0.292572   
C20      C      0.100700000000     0.317700000000     0.045700000000     0.635261   
C20      C      0.100700000000     0.317700000000     0.545700000000     0.635261   
C20      C      0.100700000000     0.817700000000     0.045700000000     0.635261   
C20      C      0.100700000000     0.817700000000     0.545700000000     0.635261   
C20      C      0.350700000000     0.317700000000     0.045700000000     0.635261   
C20      C      0.350700000000     0.317700000000     0.545700000000     0.635261   
C20      C      0.350700000000     0.817700000000     0.045700000000     0.635261   
C20      C      0.350700000000     0.817700000000     0.545700000000     0.635261   
C20      C      0.600700000000     0.317700000000     0.045700000000     0.635261   
C20      C      0.600700000000     0.317700000000     0.545700000000     0.635261   
C20      C      0.600700000000     0.817700000000     0.045700000000     0.635261   
C20      C      0.600700000000     0.817700000000     0.545700000000     0.635261   
C20      C      0.850700000000     0.317700000000     0.045700000000     0.635261   
C20      C      0.850700000000     0.317700000000     0.545700000000     0.635261   
C20      C      0.850700000000     0.817700000000     0.045700000000     0.635261   
C20      C      0.850700000000     0.817700000000     0.545700000000     0.635261   
C21      C      0.171425000000     0.202950000000     0.040950000000    -0.143787   
C21      C      0.171425000000     0.202950000000     0.540950000000    -0.143787   
C21      C      0.171425000000     0.702950000000     0.040950000000    -0.143787   
C21      C      0.171425000000     0.702950000000     0.540950000000    -0.143787   
C21      C      0.421425000000     0.202950000000     0.040950000000    -0.143787   
C21      C      0.421425000000     0.202950000000     0.540950000000    -0.143787   
C21      C      0.421425000000     0.702950000000     0.040950000000    -0.143787   
C21      C      0.421425000000     0.702950000000     0.540950000000    -0.143787   
C21      C      0.671425000000     0.202950000000     0.040950000000    -0.143787   
C21      C      0.671425000000     0.202950000000     0.540950000000    -0.143787   
C21      C      0.671425000000     0.702950000000     0.040950000000    -0.143787   
C21      C      0.671425000000     0.702950000000     0.540950000000    -0.143787   
C21      C      0.921425000000     0.202950000000     0.040950000000    -0.143787   
C21      C      0.921425000000     0.202950000000     0.540950000000    -0.143787   
C21      C      0.921425000000     0.702950000000     0.040950000000    -0.143787   
C21      C      0.921425000000     0.702950000000     0.540950000000    -0.143787   
C22      C      0.054125000000     0.283450000000     0.487100000000     0.594278   
C22      C      0.054125000000     0.283450000000     0.987100000000     0.594278   
C22      C      0.054125000000     0.783450000000     0.487100000000     0.594278   
C22      C      0.054125000000     0.783450000000     0.987100000000     0.594278   
C22      C      0.304125000000     0.283450000000     0.487100000000     0.594278   
C22      C      0.304125000000     0.283450000000     0.987100000000     0.594278   
C22      C      0.304125000000     0.783450000000     0.487100000000     0.594278   
C22      C      0.304125000000     0.783450000000     0.987100000000     0.594278   
C22      C      0.554125000000     0.283450000000     0.487100000000     0.594278   
C22      C      0.554125000000     0.283450000000     0.987100000000     0.594278   
C22      C      0.554125000000     0.783450000000     0.487100000000     0.594278   
C22      C      0.554125000000     0.783450000000     0.987100000000     0.594278   
C22      C      0.804125000000     0.283450000000     0.487100000000     0.594278   
C22      C      0.804125000000     0.283450000000     0.987100000000     0.594278   
C22      C      0.804125000000     0.783450000000     0.487100000000     0.594278   
C22      C      0.804125000000     0.783450000000     0.987100000000     0.594278   
C23      C      0.060575000000     0.251650000000     0.044550000000    -0.113184   
C23      C      0.060575000000     0.251650000000     0.544550000000    -0.113184   
C23      C      0.060575000000     0.751650000000     0.044550000000    -0.113184   
C23      C      0.060575000000     0.751650000000     0.544550000000    -0.113184   
C23      C      0.310575000000     0.251650000000     0.044550000000    -0.113184   
C23      C      0.310575000000     0.251650000000     0.544550000000    -0.113184   
C23      C      0.310575000000     0.751650000000     0.044550000000    -0.113184   
C23      C      0.310575000000     0.751650000000     0.544550000000    -0.113184   
C23      C      0.560575000000     0.251650000000     0.044550000000    -0.113184   
C23      C      0.560575000000     0.251650000000     0.544550000000    -0.113184   
C23      C      0.560575000000     0.751650000000     0.044550000000    -0.113184   
C23      C      0.560575000000     0.751650000000     0.544550000000    -0.113184   
C23      C      0.810575000000     0.251650000000     0.044550000000    -0.113184   
C23      C      0.810575000000     0.251650000000     0.544550000000    -0.113184   
C23      C      0.810575000000     0.751650000000     0.044550000000    -0.113184   
C23      C      0.810575000000     0.751650000000     0.544550000000    -0.113184   
C24      C      0.087925000000     0.240850000000     0.077400000000    -0.290572   
C24      C      0.087925000000     0.240850000000     0.577400000000    -0.290572   
C24      C      0.087925000000     0.740850000000     0.077400000000    -0.290572   
C24      C      0.087925000000     0.740850000000     0.577400000000    -0.290572   
C24      C      0.337925000000     0.240850000000     0.077400000000    -0.290572   
C24      C      0.337925000000     0.240850000000     0.577400000000    -0.290572   
C24      C      0.337925000000     0.740850000000     0.077400000000    -0.290572   
C24      C      0.337925000000     0.740850000000     0.577400000000    -0.290572   
C24      C      0.587925000000     0.240850000000     0.077400000000    -0.290572   
C24      C      0.587925000000     0.240850000000     0.577400000000    -0.290572   
C24      C      0.587925000000     0.740850000000     0.077400000000    -0.290572   
C24      C      0.587925000000     0.740850000000     0.577400000000    -0.290572   
C24      C      0.837925000000     0.240850000000     0.077400000000    -0.290572   
C24      C      0.837925000000     0.240850000000     0.577400000000    -0.290572   
C24      C      0.837925000000     0.740850000000     0.077400000000    -0.290572   
C24      C      0.837925000000     0.740850000000     0.577400000000    -0.290572   
C25      C      0.201600000000     0.487500000000     0.043100000000    -0.108227   
C25      C      0.201600000000     0.487500000000     0.543100000000    -0.108227   
C25      C      0.201600000000     0.987500000000     0.043100000000    -0.108227   
C25      C      0.201600000000     0.987500000000     0.543100000000    -0.108227   
C25      C      0.451600000000     0.487500000000     0.043100000000    -0.108227   
C25      C      0.451600000000     0.487500000000     0.543100000000    -0.108227   
C25      C      0.451600000000     0.987500000000     0.043100000000    -0.108227   
C25      C      0.451600000000     0.987500000000     0.543100000000    -0.108227   
C25      C      0.701600000000     0.487500000000     0.043100000000    -0.108227   
C25      C      0.701600000000     0.487500000000     0.543100000000    -0.108227   
C25      C      0.701600000000     0.987500000000     0.043100000000    -0.108227   
C25      C      0.701600000000     0.987500000000     0.543100000000    -0.108227   
C25      C      0.951600000000     0.487500000000     0.043100000000    -0.108227   
C25      C      0.951600000000     0.487500000000     0.543100000000    -0.108227   
C25      C      0.951600000000     0.987500000000     0.043100000000    -0.108227   
C25      C      0.951600000000     0.987500000000     0.543100000000    -0.108227   
C26      C      0.058775000000     0.200150000000     0.443150000000    -0.216646   
C26      C      0.058775000000     0.200150000000     0.943150000000    -0.216646   
C26      C      0.058775000000     0.700150000000     0.443150000000    -0.216646   
C26      C      0.058775000000     0.700150000000     0.943150000000    -0.216646   
C26      C      0.308775000000     0.200150000000     0.443150000000    -0.216646   
C26      C      0.308775000000     0.200150000000     0.943150000000    -0.216646   
C26      C      0.308775000000     0.700150000000     0.443150000000    -0.216646   
C26      C      0.308775000000     0.700150000000     0.943150000000    -0.216646   
C26      C      0.558775000000     0.200150000000     0.443150000000    -0.216646   
C26      C      0.558775000000     0.200150000000     0.943150000000    -0.216646   
C26      C      0.558775000000     0.700150000000     0.443150000000    -0.216646   
C26      C      0.558775000000     0.700150000000     0.943150000000    -0.216646   
C26      C      0.808775000000     0.200150000000     0.443150000000    -0.216646   
C26      C      0.808775000000     0.200150000000     0.943150000000    -0.216646   
C26      C      0.808775000000     0.700150000000     0.443150000000    -0.216646   
C26      C      0.808775000000     0.700150000000     0.943150000000    -0.216646   
C27      C      0.072100000000     0.233950000000     0.423250000000    -0.121862   
C27      C      0.072100000000     0.233950000000     0.923250000000    -0.121862   
C27      C      0.072100000000     0.733950000000     0.423250000000    -0.121862   
C27      C      0.072100000000     0.733950000000     0.923250000000    -0.121862   
C27      C      0.322100000000     0.233950000000     0.423250000000    -0.121862   
C27      C      0.322100000000     0.233950000000     0.923250000000    -0.121862   
C27      C      0.322100000000     0.733950000000     0.423250000000    -0.121862   
C27      C      0.322100000000     0.733950000000     0.923250000000    -0.121862   
C27      C      0.572100000000     0.233950000000     0.423250000000    -0.121862   
C27      C      0.572100000000     0.233950000000     0.923250000000    -0.121862   
C27      C      0.572100000000     0.733950000000     0.423250000000    -0.121862   
C27      C      0.572100000000     0.733950000000     0.923250000000    -0.121862   
C27      C      0.822100000000     0.233950000000     0.423250000000    -0.121862   
C27      C      0.822100000000     0.233950000000     0.923250000000    -0.121862   
C27      C      0.822100000000     0.733950000000     0.423250000000    -0.121862   
C27      C      0.822100000000     0.733950000000     0.923250000000    -0.121862   
C28      C      0.133550000000     0.284950000000     0.430400000000    -0.26608    
C28      C      0.133550000000     0.284950000000     0.930400000000    -0.26608    
C28      C      0.133550000000     0.784950000000     0.430400000000    -0.26608    
C28      C      0.133550000000     0.784950000000     0.930400000000    -0.26608    
C28      C      0.383550000000     0.284950000000     0.430400000000    -0.26608    
C28      C      0.383550000000     0.284950000000     0.930400000000    -0.26608    
C28      C      0.383550000000     0.784950000000     0.430400000000    -0.26608    
C28      C      0.383550000000     0.784950000000     0.930400000000    -0.26608    
C28      C      0.633550000000     0.284950000000     0.430400000000    -0.26608    
C28      C      0.633550000000     0.284950000000     0.930400000000    -0.26608    
C28      C      0.633550000000     0.784950000000     0.430400000000    -0.26608    
C28      C      0.633550000000     0.784950000000     0.930400000000    -0.26608    
C28      C      0.883550000000     0.284950000000     0.430400000000    -0.26608    
C28      C      0.883550000000     0.284950000000     0.930400000000    -0.26608    
C28      C      0.883550000000     0.784950000000     0.430400000000    -0.26608    
C28      C      0.883550000000     0.784950000000     0.930400000000    -0.26608    
C29      C      0.048400000000     0.012500000000     0.456900000000     0.600239   
C29      C      0.048400000000     0.012500000000     0.956900000000     0.600239   
C29      C      0.048400000000     0.512500000000     0.456900000000     0.600239   
C29      C      0.048400000000     0.512500000000     0.956900000000     0.600239   
C29      C      0.298400000000     0.012500000000     0.456900000000     0.600239   
C29      C      0.298400000000     0.012500000000     0.956900000000     0.600239   
C29      C      0.298400000000     0.512500000000     0.456900000000     0.600239   
C29      C      0.298400000000     0.512500000000     0.956900000000     0.600239   
C29      C      0.548400000000     0.012500000000     0.456900000000     0.600239   
C29      C      0.548400000000     0.012500000000     0.956900000000     0.600239   
C29      C      0.548400000000     0.512500000000     0.456900000000     0.600239   
C29      C      0.548400000000     0.512500000000     0.956900000000     0.600239   
C29      C      0.798400000000     0.012500000000     0.456900000000     0.600239   
C29      C      0.798400000000     0.012500000000     0.956900000000     0.600239   
C29      C      0.798400000000     0.512500000000     0.456900000000     0.600239   
C29      C      0.798400000000     0.512500000000     0.956900000000     0.600239   
C30      C      0.193250000000     0.044500000000     0.477450000000     0.627877   
C30      C      0.193250000000     0.044500000000     0.977450000000     0.627877   
C30      C      0.193250000000     0.544500000000     0.477450000000     0.627877   
C30      C      0.193250000000     0.544500000000     0.977450000000     0.627877   
C30      C      0.443250000000     0.044500000000     0.477450000000     0.627877   
C30      C      0.443250000000     0.044500000000     0.977450000000     0.627877   
C30      C      0.443250000000     0.544500000000     0.477450000000     0.627877   
C30      C      0.443250000000     0.544500000000     0.977450000000     0.627877   
C30      C      0.693250000000     0.044500000000     0.477450000000     0.627877   
C30      C      0.693250000000     0.044500000000     0.977450000000     0.627877   
C30      C      0.693250000000     0.544500000000     0.477450000000     0.627877   
C30      C      0.693250000000     0.544500000000     0.977450000000     0.627877   
C30      C      0.943250000000     0.044500000000     0.477450000000     0.627877   
C30      C      0.943250000000     0.044500000000     0.977450000000     0.627877   
C30      C      0.943250000000     0.544500000000     0.477450000000     0.627877   
C30      C      0.943250000000     0.544500000000     0.977450000000     0.627877   
C31      C      0.196775000000     0.064950000000     0.016500000000    -0.272516   
C31      C      0.196775000000     0.064950000000     0.516500000000    -0.272516   
C31      C      0.196775000000     0.564950000000     0.016500000000    -0.272516   
C31      C      0.196775000000     0.564950000000     0.516500000000    -0.272516   
C31      C      0.446775000000     0.064950000000     0.016500000000    -0.272516   
C31      C      0.446775000000     0.064950000000     0.516500000000    -0.272516   
C31      C      0.446775000000     0.564950000000     0.016500000000    -0.272516   
C31      C      0.446775000000     0.564950000000     0.516500000000    -0.272516   
C31      C      0.696775000000     0.064950000000     0.016500000000    -0.272516   
C31      C      0.696775000000     0.064950000000     0.516500000000    -0.272516   
C31      C      0.696775000000     0.564950000000     0.016500000000    -0.272516   
C31      C      0.696775000000     0.564950000000     0.516500000000    -0.272516   
C31      C      0.946775000000     0.064950000000     0.016500000000    -0.272516   
C31      C      0.946775000000     0.064950000000     0.516500000000    -0.272516   
C31      C      0.946775000000     0.564950000000     0.016500000000    -0.272516   
C31      C      0.946775000000     0.564950000000     0.516500000000    -0.272516   
C32      C      0.192150000000     0.023050000000     0.064350000000    -0.134904   
C32      C      0.192150000000     0.023050000000     0.564350000000    -0.134904   
C32      C      0.192150000000     0.523050000000     0.064350000000    -0.134904   
C32      C      0.192150000000     0.523050000000     0.564350000000    -0.134904   
C32      C      0.442150000000     0.023050000000     0.064350000000    -0.134904   
C32      C      0.442150000000     0.023050000000     0.564350000000    -0.134904   
C32      C      0.442150000000     0.523050000000     0.064350000000    -0.134904   
C32      C      0.442150000000     0.523050000000     0.564350000000    -0.134904   
C32      C      0.692150000000     0.023050000000     0.064350000000    -0.134904   
C32      C      0.692150000000     0.023050000000     0.564350000000    -0.134904   
C32      C      0.692150000000     0.523050000000     0.064350000000    -0.134904   
C32      C      0.692150000000     0.523050000000     0.564350000000    -0.134904   
C32      C      0.942150000000     0.023050000000     0.064350000000    -0.134904   
C32      C      0.942150000000     0.023050000000     0.564350000000    -0.134904   
C32      C      0.942150000000     0.523050000000     0.064350000000    -0.134904   
C32      C      0.942150000000     0.523050000000     0.564350000000    -0.134904   
C33      C      0.150475000000     0.071400000000     0.058250000000    -0.138685   
C33      C      0.150475000000     0.071400000000     0.558250000000    -0.138685   
C33      C      0.150475000000     0.571400000000     0.058250000000    -0.138685   
C33      C      0.150475000000     0.571400000000     0.558250000000    -0.138685   
C33      C      0.400475000000     0.071400000000     0.058250000000    -0.138685   
C33      C      0.400475000000     0.071400000000     0.558250000000    -0.138685   
C33      C      0.400475000000     0.571400000000     0.058250000000    -0.138685   
C33      C      0.400475000000     0.571400000000     0.558250000000    -0.138685   
C33      C      0.650475000000     0.071400000000     0.058250000000    -0.138685   
C33      C      0.650475000000     0.071400000000     0.558250000000    -0.138685   
C33      C      0.650475000000     0.571400000000     0.058250000000    -0.138685   
C33      C      0.650475000000     0.571400000000     0.558250000000    -0.138685   
C33      C      0.900475000000     0.071400000000     0.058250000000    -0.138685   
C33      C      0.900475000000     0.071400000000     0.558250000000    -0.138685   
C33      C      0.900475000000     0.571400000000     0.058250000000    -0.138685   
C33      C      0.900475000000     0.571400000000     0.558250000000    -0.138685   
C34      C      0.121425000000     0.090850000000     0.033700000000    -0.11037    
C34      C      0.121425000000     0.090850000000     0.533700000000    -0.11037    
C34      C      0.121425000000     0.590850000000     0.033700000000    -0.11037    
C34      C      0.121425000000     0.590850000000     0.533700000000    -0.11037    
C34      C      0.371425000000     0.090850000000     0.033700000000    -0.11037    
C34      C      0.371425000000     0.090850000000     0.533700000000    -0.11037    
C34      C      0.371425000000     0.590850000000     0.033700000000    -0.11037    
C34      C      0.371425000000     0.590850000000     0.533700000000    -0.11037    
C34      C      0.621425000000     0.090850000000     0.033700000000    -0.11037    
C34      C      0.621425000000     0.090850000000     0.533700000000    -0.11037    
C34      C      0.621425000000     0.590850000000     0.033700000000    -0.11037    
C34      C      0.621425000000     0.590850000000     0.533700000000    -0.11037    
C34      C      0.871425000000     0.090850000000     0.033700000000    -0.11037    
C34      C      0.871425000000     0.090850000000     0.533700000000    -0.11037    
C34      C      0.871425000000     0.590850000000     0.033700000000    -0.11037    
C34      C      0.871425000000     0.590850000000     0.533700000000    -0.11037    
C35      C      0.081600000000     0.065450000000     0.009000000000    -0.203346   
C35      C      0.081600000000     0.065450000000     0.509000000000    -0.203346   
C35      C      0.081600000000     0.565450000000     0.009000000000    -0.203346   
C35      C      0.081600000000     0.565450000000     0.509000000000    -0.203346   
C35      C      0.331600000000     0.065450000000     0.009000000000    -0.203346   
C35      C      0.331600000000     0.065450000000     0.509000000000    -0.203346   
C35      C      0.331600000000     0.565450000000     0.009000000000    -0.203346   
C35      C      0.331600000000     0.565450000000     0.509000000000    -0.203346   
C35      C      0.581600000000     0.065450000000     0.009000000000    -0.203346   
C35      C      0.581600000000     0.065450000000     0.509000000000    -0.203346   
C35      C      0.581600000000     0.565450000000     0.009000000000    -0.203346   
C35      C      0.581600000000     0.565450000000     0.509000000000    -0.203346   
C35      C      0.831600000000     0.065450000000     0.009000000000    -0.203346   
C35      C      0.831600000000     0.065450000000     0.509000000000    -0.203346   
C35      C      0.831600000000     0.565450000000     0.009000000000    -0.203346   
C35      C      0.831600000000     0.565450000000     0.509000000000    -0.203346   
C36      C      0.103750000000     0.062550000000     0.449700000000    -0.145651   
C36      C      0.103750000000     0.062550000000     0.949700000000    -0.145651   
C36      C      0.103750000000     0.562550000000     0.449700000000    -0.145651   
C36      C      0.103750000000     0.562550000000     0.949700000000    -0.145651   
C36      C      0.353750000000     0.062550000000     0.449700000000    -0.145651   
C36      C      0.353750000000     0.062550000000     0.949700000000    -0.145651   
C36      C      0.353750000000     0.562550000000     0.449700000000    -0.145651   
C36      C      0.353750000000     0.562550000000     0.949700000000    -0.145651   
C36      C      0.603750000000     0.062550000000     0.449700000000    -0.145651   
C36      C      0.603750000000     0.062550000000     0.949700000000    -0.145651   
C36      C      0.603750000000     0.562550000000     0.449700000000    -0.145651   
C36      C      0.603750000000     0.562550000000     0.949700000000    -0.145651   
C36      C      0.853750000000     0.062550000000     0.449700000000    -0.145651   
C36      C      0.853750000000     0.062550000000     0.949700000000    -0.145651   
C36      C      0.853750000000     0.562550000000     0.449700000000    -0.145651   
C36      C      0.853750000000     0.562550000000     0.949700000000    -0.145651   
C37      C      0.079675000000     0.089600000000     0.428950000000    -0.282487   
C37      C      0.079675000000     0.089600000000     0.928950000000    -0.282487   
C37      C      0.079675000000     0.589600000000     0.428950000000    -0.282487   
C37      C      0.079675000000     0.589600000000     0.928950000000    -0.282487   
C37      C      0.329675000000     0.089600000000     0.428950000000    -0.282487   
C37      C      0.329675000000     0.089600000000     0.928950000000    -0.282487   
C37      C      0.329675000000     0.589600000000     0.428950000000    -0.282487   
C37      C      0.329675000000     0.589600000000     0.928950000000    -0.282487   
C37      C      0.579675000000     0.089600000000     0.428950000000    -0.282487   
C37      C      0.579675000000     0.089600000000     0.928950000000    -0.282487   
C37      C      0.579675000000     0.589600000000     0.428950000000    -0.282487   
C37      C      0.579675000000     0.589600000000     0.928950000000    -0.282487   
C37      C      0.829675000000     0.089600000000     0.428950000000    -0.282487   
C37      C      0.829675000000     0.089600000000     0.928950000000    -0.282487   
C37      C      0.829675000000     0.589600000000     0.428950000000    -0.282487   
C37      C      0.829675000000     0.589600000000     0.928950000000    -0.282487   
C38      C      0.206400000000     0.492450000000     0.309800000000     1.37604    
C38      C      0.206400000000     0.492450000000     0.809800000000     1.37604    
C38      C      0.206400000000     0.992450000000     0.309800000000     1.37604    
C38      C      0.206400000000     0.992450000000     0.809800000000     1.37604    
C38      C      0.456400000000     0.492450000000     0.309800000000     1.37604    
C38      C      0.456400000000     0.492450000000     0.809800000000     1.37604    
C38      C      0.456400000000     0.992450000000     0.309800000000     1.37604    
C38      C      0.456400000000     0.992450000000     0.809800000000     1.37604    
C38      C      0.706400000000     0.492450000000     0.309800000000     1.37604    
C38      C      0.706400000000     0.492450000000     0.809800000000     1.37604    
C38      C      0.706400000000     0.992450000000     0.309800000000     1.37604    
C38      C      0.706400000000     0.992450000000     0.809800000000     1.37604    
C38      C      0.956400000000     0.492450000000     0.309800000000     1.37604    
C38      C      0.956400000000     0.492450000000     0.809800000000     1.37604    
C38      C      0.956400000000     0.992450000000     0.309800000000     1.37604    
C38      C      0.956400000000     0.992450000000     0.809800000000     1.37604    
C39      C      0.022000000000     0.078600000000     0.238350000000     1.37604    
C39      C      0.022000000000     0.078600000000     0.738350000000     1.37604    
C39      C      0.022000000000     0.578600000000     0.238350000000     1.37604    
C39      C      0.022000000000     0.578600000000     0.738350000000     1.37604    
C39      C      0.272000000000     0.078600000000     0.238350000000     1.37604    
C39      C      0.272000000000     0.078600000000     0.738350000000     1.37604    
C39      C      0.272000000000     0.578600000000     0.238350000000     1.37604    
C39      C      0.272000000000     0.578600000000     0.738350000000     1.37604    
C39      C      0.522000000000     0.078600000000     0.238350000000     1.37604    
C39      C      0.522000000000     0.078600000000     0.738350000000     1.37604    
C39      C      0.522000000000     0.578600000000     0.238350000000     1.37604    
C39      C      0.522000000000     0.578600000000     0.738350000000     1.37604    
C39      C      0.772000000000     0.078600000000     0.238350000000     1.37604    
C39      C      0.772000000000     0.078600000000     0.738350000000     1.37604    
C39      C      0.772000000000     0.578600000000     0.238350000000     1.37604    
C39      C      0.772000000000     0.578600000000     0.738350000000     1.37604    
C40      C      0.116450000000     0.215050000000     0.069600000000     0.11181    
C40      C      0.116450000000     0.215050000000     0.569600000000     0.11181    
C40      C      0.116450000000     0.715050000000     0.069600000000     0.11181    
C40      C      0.116450000000     0.715050000000     0.569600000000     0.11181    
C40      C      0.366450000000     0.215050000000     0.069600000000     0.11181    
C40      C      0.366450000000     0.215050000000     0.569600000000     0.11181    
C40      C      0.366450000000     0.715050000000     0.069600000000     0.11181    
C40      C      0.366450000000     0.715050000000     0.569600000000     0.11181    
C40      C      0.616450000000     0.215050000000     0.069600000000     0.11181    
C40      C      0.616450000000     0.215050000000     0.569600000000     0.11181    
C40      C      0.616450000000     0.715050000000     0.069600000000     0.11181    
C40      C      0.616450000000     0.715050000000     0.569600000000     0.11181    
C40      C      0.866450000000     0.215050000000     0.069600000000     0.11181    
C40      C      0.866450000000     0.215050000000     0.569600000000     0.11181    
C40      C      0.866450000000     0.715050000000     0.069600000000     0.11181    
C40      C      0.866450000000     0.715050000000     0.569600000000     0.11181    
C41      C      0.062825000000     0.070700000000     0.257800000000     0.099963   
C41      C      0.062825000000     0.070700000000     0.757800000000     0.099963   
C41      C      0.062825000000     0.570700000000     0.257800000000     0.099963   
C41      C      0.062825000000     0.570700000000     0.757800000000     0.099963   
C41      C      0.312825000000     0.070700000000     0.257800000000     0.099963   
C41      C      0.312825000000     0.070700000000     0.757800000000     0.099963   
C41      C      0.312825000000     0.570700000000     0.257800000000     0.099963   
C41      C      0.312825000000     0.570700000000     0.757800000000     0.099963   
C41      C      0.562825000000     0.070700000000     0.257800000000     0.099963   
C41      C      0.562825000000     0.070700000000     0.757800000000     0.099963   
C41      C      0.562825000000     0.570700000000     0.257800000000     0.099963   
C41      C      0.562825000000     0.570700000000     0.757800000000     0.099963   
C41      C      0.812825000000     0.070700000000     0.257800000000     0.099963   
C41      C      0.812825000000     0.070700000000     0.757800000000     0.099963   
C41      C      0.812825000000     0.570700000000     0.257800000000     0.099963   
C41      C      0.812825000000     0.570700000000     0.757800000000     0.099963   
C42      C      0.085675000000     0.022950000000     0.295750000000     0.104503   
C42      C      0.085675000000     0.022950000000     0.795750000000     0.104503   
C42      C      0.085675000000     0.522950000000     0.295750000000     0.104503   
C42      C      0.085675000000     0.522950000000     0.795750000000     0.104503   
C42      C      0.335675000000     0.022950000000     0.295750000000     0.104503   
C42      C      0.335675000000     0.022950000000     0.795750000000     0.104503   
C42      C      0.335675000000     0.522950000000     0.295750000000     0.104503   
C42      C      0.335675000000     0.522950000000     0.795750000000     0.104503   
C42      C      0.585675000000     0.022950000000     0.295750000000     0.104503   
C42      C      0.585675000000     0.022950000000     0.795750000000     0.104503   
C42      C      0.585675000000     0.522950000000     0.295750000000     0.104503   
C42      C      0.585675000000     0.522950000000     0.795750000000     0.104503   
C42      C      0.835675000000     0.022950000000     0.295750000000     0.104503   
C42      C      0.835675000000     0.022950000000     0.795750000000     0.104503   
C42      C      0.835675000000     0.522950000000     0.295750000000     0.104503   
C42      C      0.835675000000     0.522950000000     0.795750000000     0.104503   
C43      C      0.071900000000     0.035050000000     0.331100000000     0.140118   
C43      C      0.071900000000     0.035050000000     0.831100000000     0.140118   
C43      C      0.071900000000     0.535050000000     0.331100000000     0.140118   
C43      C      0.071900000000     0.535050000000     0.831100000000     0.140118   
C43      C      0.321900000000     0.035050000000     0.331100000000     0.140118   
C43      C      0.321900000000     0.035050000000     0.831100000000     0.140118   
C43      C      0.321900000000     0.535050000000     0.331100000000     0.140118   
C43      C      0.321900000000     0.535050000000     0.831100000000     0.140118   
C43      C      0.571900000000     0.035050000000     0.331100000000     0.140118   
C43      C      0.571900000000     0.035050000000     0.831100000000     0.140118   
C43      C      0.571900000000     0.535050000000     0.331100000000     0.140118   
C43      C      0.571900000000     0.535050000000     0.831100000000     0.140118   
C43      C      0.821900000000     0.035050000000     0.331100000000     0.140118   
C43      C      0.821900000000     0.035050000000     0.831100000000     0.140118   
C43      C      0.821900000000     0.535050000000     0.331100000000     0.140118   
C43      C      0.821900000000     0.535050000000     0.831100000000     0.140118   
C44      C      0.030675000000     0.011700000000     0.335250000000     0.153675   
C44      C      0.030675000000     0.011700000000     0.835250000000     0.153675   
C44      C      0.030675000000     0.511700000000     0.335250000000     0.153675   
C44      C      0.030675000000     0.511700000000     0.835250000000     0.153675   
C44      C      0.280675000000     0.011700000000     0.335250000000     0.153675   
C44      C      0.280675000000     0.011700000000     0.835250000000     0.153675   
C44      C      0.280675000000     0.511700000000     0.335250000000     0.153675   
C44      C      0.280675000000     0.511700000000     0.835250000000     0.153675   
C44      C      0.530675000000     0.011700000000     0.335250000000     0.153675   
C44      C      0.530675000000     0.011700000000     0.835250000000     0.153675   
C44      C      0.530675000000     0.511700000000     0.335250000000     0.153675   
C44      C      0.530675000000     0.511700000000     0.835250000000     0.153675   
C44      C      0.780675000000     0.011700000000     0.335250000000     0.153675   
C44      C      0.780675000000     0.011700000000     0.835250000000     0.153675   
C44      C      0.780675000000     0.511700000000     0.335250000000     0.153675   
C44      C      0.780675000000     0.511700000000     0.835250000000     0.153675   
C45      C      0.241625000000     0.059700000000     0.316550000000     0.125448   
C45      C      0.241625000000     0.059700000000     0.816550000000     0.125448   
C45      C      0.241625000000     0.559700000000     0.316550000000     0.125448   
C45      C      0.241625000000     0.559700000000     0.816550000000     0.125448   
C45      C      0.491625000000     0.059700000000     0.316550000000     0.125448   
C45      C      0.491625000000     0.059700000000     0.816550000000     0.125448   
C45      C      0.491625000000     0.559700000000     0.316550000000     0.125448   
C45      C      0.491625000000     0.559700000000     0.816550000000     0.125448   
C45      C      0.741625000000     0.059700000000     0.316550000000     0.125448   
C45      C      0.741625000000     0.059700000000     0.816550000000     0.125448   
C45      C      0.741625000000     0.559700000000     0.316550000000     0.125448   
C45      C      0.741625000000     0.559700000000     0.816550000000     0.125448   
C45      C      0.991625000000     0.059700000000     0.316550000000     0.125448   
C45      C      0.991625000000     0.059700000000     0.816550000000     0.125448   
C45      C      0.991625000000     0.559700000000     0.316550000000     0.125448   
C45      C      0.991625000000     0.559700000000     0.816550000000     0.125448   
C46      C      0.237750000000     0.075300000000     0.356200000000     0.120628   
C46      C      0.237750000000     0.075300000000     0.856200000000     0.120628   
C46      C      0.237750000000     0.575300000000     0.356200000000     0.120628   
C46      C      0.237750000000     0.575300000000     0.856200000000     0.120628   
C46      C      0.487750000000     0.075300000000     0.356200000000     0.120628   
C46      C      0.487750000000     0.075300000000     0.856200000000     0.120628   
C46      C      0.487750000000     0.575300000000     0.356200000000     0.120628   
C46      C      0.487750000000     0.575300000000     0.856200000000     0.120628   
C46      C      0.737750000000     0.075300000000     0.356200000000     0.120628   
C46      C      0.737750000000     0.075300000000     0.856200000000     0.120628   
C46      C      0.737750000000     0.575300000000     0.356200000000     0.120628   
C46      C      0.737750000000     0.575300000000     0.856200000000     0.120628   
C46      C      0.987750000000     0.075300000000     0.356200000000     0.120628   
C46      C      0.987750000000     0.075300000000     0.856200000000     0.120628   
C46      C      0.987750000000     0.575300000000     0.356200000000     0.120628   
C46      C      0.987750000000     0.575300000000     0.856200000000     0.120628   
C47      C      0.179750000000     0.158950000000     0.445700000000     0.129742   
C47      C      0.179750000000     0.158950000000     0.945700000000     0.129742   
C47      C      0.179750000000     0.658950000000     0.445700000000     0.129742   
C47      C      0.179750000000     0.658950000000     0.945700000000     0.129742   
C47      C      0.429750000000     0.158950000000     0.445700000000     0.129742   
C47      C      0.429750000000     0.158950000000     0.945700000000     0.129742   
C47      C      0.429750000000     0.658950000000     0.445700000000     0.129742   
C47      C      0.429750000000     0.658950000000     0.945700000000     0.129742   
C47      C      0.679750000000     0.158950000000     0.445700000000     0.129742   
C47      C      0.679750000000     0.158950000000     0.945700000000     0.129742   
C47      C      0.679750000000     0.658950000000     0.445700000000     0.129742   
C47      C      0.679750000000     0.658950000000     0.945700000000     0.129742   
C47      C      0.929750000000     0.158950000000     0.445700000000     0.129742   
C47      C      0.929750000000     0.158950000000     0.945700000000     0.129742   
C47      C      0.929750000000     0.658950000000     0.445700000000     0.129742   
C47      C      0.929750000000     0.658950000000     0.945700000000     0.129742   
C48      C      0.149300000000     0.182300000000     0.454300000000     0.135405   
C48      C      0.149300000000     0.182300000000     0.954300000000     0.135405   
C48      C      0.149300000000     0.682300000000     0.454300000000     0.135405   
C48      C      0.149300000000     0.682300000000     0.954300000000     0.135405   
C48      C      0.399300000000     0.182300000000     0.454300000000     0.135405   
C48      C      0.399300000000     0.182300000000     0.954300000000     0.135405   
C48      C      0.399300000000     0.682300000000     0.454300000000     0.135405   
C48      C      0.399300000000     0.682300000000     0.954300000000     0.135405   
C48      C      0.649300000000     0.182300000000     0.454300000000     0.135405   
C48      C      0.649300000000     0.182300000000     0.954300000000     0.135405   
C48      C      0.649300000000     0.682300000000     0.454300000000     0.135405   
C48      C      0.649300000000     0.682300000000     0.954300000000     0.135405   
C48      C      0.899300000000     0.182300000000     0.454300000000     0.135405   
C48      C      0.899300000000     0.182300000000     0.954300000000     0.135405   
C48      C      0.899300000000     0.682300000000     0.454300000000     0.135405   
C48      C      0.899300000000     0.682300000000     0.954300000000     0.135405   
C49      C      0.078575000000     0.297050000000     0.459050000000     0.106124   
C49      C      0.078575000000     0.297050000000     0.959050000000     0.106124   
C49      C      0.078575000000     0.797050000000     0.459050000000     0.106124   
C49      C      0.078575000000     0.797050000000     0.959050000000     0.106124   
C49      C      0.328575000000     0.297050000000     0.459050000000     0.106124   
C49      C      0.328575000000     0.297050000000     0.959050000000     0.106124   
C49      C      0.328575000000     0.797050000000     0.459050000000     0.106124   
C49      C      0.328575000000     0.797050000000     0.959050000000     0.106124   
C49      C      0.578575000000     0.297050000000     0.459050000000     0.106124   
C49      C      0.578575000000     0.297050000000     0.959050000000     0.106124   
C49      C      0.578575000000     0.797050000000     0.459050000000     0.106124   
C49      C      0.578575000000     0.797050000000     0.959050000000     0.106124   
C49      C      0.828575000000     0.297050000000     0.459050000000     0.106124   
C49      C      0.828575000000     0.297050000000     0.959050000000     0.106124   
C49      C      0.828575000000     0.797050000000     0.459050000000     0.106124   
C49      C      0.828575000000     0.797050000000     0.959050000000     0.106124   
C50      C      0.195875000000     0.216550000000     0.012900000000     0.11172    
C50      C      0.195875000000     0.216550000000     0.512900000000     0.11172    
C50      C      0.195875000000     0.716550000000     0.012900000000     0.11172    
C50      C      0.195875000000     0.716550000000     0.512900000000     0.11172    
C50      C      0.445875000000     0.216550000000     0.012900000000     0.11172    
C50      C      0.445875000000     0.216550000000     0.512900000000     0.11172    
C50      C      0.445875000000     0.716550000000     0.012900000000     0.11172    
C50      C      0.445875000000     0.716550000000     0.512900000000     0.11172    
C50      C      0.695875000000     0.216550000000     0.012900000000     0.11172    
C50      C      0.695875000000     0.216550000000     0.512900000000     0.11172    
C50      C      0.695875000000     0.716550000000     0.012900000000     0.11172    
C50      C      0.695875000000     0.716550000000     0.512900000000     0.11172    
C50      C      0.945875000000     0.216550000000     0.012900000000     0.11172    
C50      C      0.945875000000     0.216550000000     0.512900000000     0.11172    
C50      C      0.945875000000     0.716550000000     0.012900000000     0.11172    
C50      C      0.945875000000     0.716550000000     0.512900000000     0.11172    
C51      C      0.189425000000     0.248350000000     0.455450000000     0.109911   
C51      C      0.189425000000     0.248350000000     0.955450000000     0.109911   
C51      C      0.189425000000     0.748350000000     0.455450000000     0.109911   
C51      C      0.189425000000     0.748350000000     0.955450000000     0.109911   
C51      C      0.439425000000     0.248350000000     0.455450000000     0.109911   
C51      C      0.439425000000     0.248350000000     0.955450000000     0.109911   
C51      C      0.439425000000     0.748350000000     0.455450000000     0.109911   
C51      C      0.439425000000     0.748350000000     0.955450000000     0.109911   
C51      C      0.689425000000     0.248350000000     0.455450000000     0.109911   
C51      C      0.689425000000     0.248350000000     0.955450000000     0.109911   
C51      C      0.689425000000     0.748350000000     0.455450000000     0.109911   
C51      C      0.689425000000     0.748350000000     0.955450000000     0.109911   
C51      C      0.939425000000     0.248350000000     0.455450000000     0.109911   
C51      C      0.939425000000     0.248350000000     0.955450000000     0.109911   
C51      C      0.939425000000     0.748350000000     0.455450000000     0.109911   
C51      C      0.939425000000     0.748350000000     0.955450000000     0.109911   
C52      C      0.162075000000     0.259150000000     0.422600000000     0.124021   
C52      C      0.162075000000     0.259150000000     0.922600000000     0.124021   
C52      C      0.162075000000     0.759150000000     0.422600000000     0.124021   
C52      C      0.162075000000     0.759150000000     0.922600000000     0.124021   
C52      C      0.412075000000     0.259150000000     0.422600000000     0.124021   
C52      C      0.412075000000     0.259150000000     0.922600000000     0.124021   
C52      C      0.412075000000     0.759150000000     0.422600000000     0.124021   
C52      C      0.412075000000     0.759150000000     0.922600000000     0.124021   
C52      C      0.662075000000     0.259150000000     0.422600000000     0.124021   
C52      C      0.662075000000     0.259150000000     0.922600000000     0.124021   
C52      C      0.662075000000     0.759150000000     0.422600000000     0.124021   
C52      C      0.662075000000     0.759150000000     0.922600000000     0.124021   
C52      C      0.912075000000     0.259150000000     0.422600000000     0.124021   
C52      C      0.912075000000     0.259150000000     0.922600000000     0.124021   
C52      C      0.912075000000     0.759150000000     0.422600000000     0.124021   
C52      C      0.912075000000     0.759150000000     0.922600000000     0.124021   
C53      C      0.074675000000     0.011600000000     0.227700000000     0.097495   
C53      C      0.074675000000     0.011600000000     0.727700000000     0.097495   
C53      C      0.074675000000     0.511600000000     0.227700000000     0.097495   
C53      C      0.074675000000     0.511600000000     0.727700000000     0.097495   
C53      C      0.324675000000     0.011600000000     0.227700000000     0.097495   
C53      C      0.324675000000     0.011600000000     0.727700000000     0.097495   
C53      C      0.324675000000     0.511600000000     0.227700000000     0.097495   
C53      C      0.324675000000     0.511600000000     0.727700000000     0.097495   
C53      C      0.574675000000     0.011600000000     0.227700000000     0.097495   
C53      C      0.574675000000     0.011600000000     0.727700000000     0.097495   
C53      C      0.574675000000     0.511600000000     0.227700000000     0.097495   
C53      C      0.574675000000     0.511600000000     0.727700000000     0.097495   
C53      C      0.824675000000     0.011600000000     0.227700000000     0.097495   
C53      C      0.824675000000     0.011600000000     0.727700000000     0.097495   
C53      C      0.824675000000     0.511600000000     0.227700000000     0.097495   
C53      C      0.824675000000     0.511600000000     0.727700000000     0.097495   
C54      C      0.177900000000     0.266050000000     0.076750000000     0.11235    
C54      C      0.177900000000     0.266050000000     0.576750000000     0.11235    
C54      C      0.177900000000     0.766050000000     0.076750000000     0.11235    
C54      C      0.177900000000     0.766050000000     0.576750000000     0.11235    
C54      C      0.427900000000     0.266050000000     0.076750000000     0.11235    
C54      C      0.427900000000     0.266050000000     0.576750000000     0.11235    
C54      C      0.427900000000     0.766050000000     0.076750000000     0.11235    
C54      C      0.427900000000     0.766050000000     0.576750000000     0.11235    
C54      C      0.677900000000     0.266050000000     0.076750000000     0.11235    
C54      C      0.677900000000     0.266050000000     0.576750000000     0.11235    
C54      C      0.677900000000     0.766050000000     0.076750000000     0.11235    
C54      C      0.677900000000     0.766050000000     0.576750000000     0.11235    
C54      C      0.927900000000     0.266050000000     0.076750000000     0.11235    
C54      C      0.927900000000     0.266050000000     0.576750000000     0.11235    
C54      C      0.927900000000     0.766050000000     0.076750000000     0.11235    
C54      C      0.927900000000     0.766050000000     0.576750000000     0.11235    
Eu1      Eu     0.014277500000     0.386790000000     0.071590000000     0.11535    
Eu1      Eu     0.014277500000     0.386790000000     0.571590000000     0.11535    
Eu1      Eu     0.014277500000     0.886790000000     0.071590000000     0.11535    
Eu1      Eu     0.014277500000     0.886790000000     0.571590000000     0.11535    
Eu1      Eu     0.264277500000     0.386790000000     0.071590000000     0.11535    
Eu1      Eu     0.264277500000     0.386790000000     0.571590000000     0.11535    
Eu1      Eu     0.264277500000     0.886790000000     0.071590000000     0.11535    
Eu1      Eu     0.264277500000     0.886790000000     0.571590000000     0.11535    
Eu1      Eu     0.514277500000     0.386790000000     0.071590000000     0.11535    
Eu1      Eu     0.514277500000     0.386790000000     0.571590000000     0.11535    
Eu1      Eu     0.514277500000     0.886790000000     0.071590000000     0.11535    
Eu1      Eu     0.514277500000     0.886790000000     0.571590000000     0.11535    
Eu1      Eu     0.764277500000     0.386790000000     0.071590000000     0.11535    
Eu1      Eu     0.764277500000     0.386790000000     0.571590000000     0.11535    
Eu1      Eu     0.764277500000     0.886790000000     0.071590000000     0.11535    
Eu1      Eu     0.764277500000     0.886790000000     0.571590000000     0.11535    
Eu2      Eu     0.235722500000     0.113210000000     0.428410000000     0.11083    
Eu2      Eu     0.235722500000     0.113210000000     0.928410000000     0.11083    
Eu2      Eu     0.235722500000     0.613210000000     0.428410000000     0.11083    
Eu2      Eu     0.235722500000     0.613210000000     0.928410000000     0.11083    
Eu2      Eu     0.485722500000     0.113210000000     0.428410000000     0.11083    
Eu2      Eu     0.485722500000     0.113210000000     0.928410000000     0.11083    
Eu2      Eu     0.485722500000     0.613210000000     0.428410000000     0.11083    
Eu2      Eu     0.485722500000     0.613210000000     0.928410000000     0.11083    
Eu2      Eu     0.735722500000     0.113210000000     0.428410000000     0.11083    
Eu2      Eu     0.735722500000     0.113210000000     0.928410000000     0.11083    
Eu2      Eu     0.735722500000     0.613210000000     0.428410000000     0.11083    
Eu2      Eu     0.735722500000     0.613210000000     0.928410000000     0.11083    
Eu2      Eu     0.985722500000     0.113210000000     0.428410000000     0.11083    
Eu2      Eu     0.985722500000     0.113210000000     0.928410000000     0.11083    
Eu2      Eu     0.985722500000     0.613210000000     0.428410000000     0.11083    
Eu2      Eu     0.985722500000     0.613210000000     0.928410000000     0.11083    
H1       H      0.214400000000     0.241100000000     0.023650000000     0.134826   
H1       H      0.214400000000     0.241100000000     0.523650000000     0.134826   
H1       H      0.214400000000     0.741100000000     0.023650000000     0.134826   
H1       H      0.214400000000     0.741100000000     0.523650000000     0.134826   
H1       H      0.464400000000     0.241100000000     0.023650000000     0.134826   
H1       H      0.464400000000     0.241100000000     0.523650000000     0.134826   
H1       H      0.464400000000     0.741100000000     0.023650000000     0.134826   
H1       H      0.464400000000     0.741100000000     0.523650000000     0.134826   
H1       H      0.714400000000     0.241100000000     0.023650000000     0.134826   
H1       H      0.714400000000     0.241100000000     0.523650000000     0.134826   
H1       H      0.714400000000     0.741100000000     0.023650000000     0.134826   
H1       H      0.714400000000     0.741100000000     0.523650000000     0.134826   
H1       H      0.964400000000     0.241100000000     0.023650000000     0.134826   
H1       H      0.964400000000     0.241100000000     0.523650000000     0.134826   
H1       H      0.964400000000     0.741100000000     0.023650000000     0.134826   
H1       H      0.964400000000     0.741100000000     0.523650000000     0.134826   
H2       H      0.203825000000     0.271750000000     0.472500000000     0.104596   
H2       H      0.203825000000     0.271750000000     0.972500000000     0.104596   
H2       H      0.203825000000     0.771750000000     0.472500000000     0.104596   
H2       H      0.203825000000     0.771750000000     0.972500000000     0.104596   
H2       H      0.453825000000     0.271750000000     0.472500000000     0.104596   
H2       H      0.453825000000     0.271750000000     0.972500000000     0.104596   
H2       H      0.453825000000     0.771750000000     0.472500000000     0.104596   
H2       H      0.453825000000     0.771750000000     0.972500000000     0.104596   
H2       H      0.703825000000     0.271750000000     0.472500000000     0.104596   
H2       H      0.703825000000     0.271750000000     0.972500000000     0.104596   
H2       H      0.703825000000     0.771750000000     0.472500000000     0.104596   
H2       H      0.703825000000     0.771750000000     0.972500000000     0.104596   
H2       H      0.953825000000     0.271750000000     0.472500000000     0.104596   
H2       H      0.953825000000     0.271750000000     0.972500000000     0.104596   
H2       H      0.953825000000     0.771750000000     0.472500000000     0.104596   
H2       H      0.953825000000     0.771750000000     0.972500000000     0.104596   
H3       H      0.149675000000     0.472500000000     0.273850000000     0.09964    
H3       H      0.149675000000     0.472500000000     0.773850000000     0.09964    
H3       H      0.149675000000     0.972500000000     0.273850000000     0.09964    
H3       H      0.149675000000     0.972500000000     0.773850000000     0.09964    
H3       H      0.399675000000     0.472500000000     0.273850000000     0.09964    
H3       H      0.399675000000     0.472500000000     0.773850000000     0.09964    
H3       H      0.399675000000     0.972500000000     0.273850000000     0.09964    
H3       H      0.399675000000     0.972500000000     0.773850000000     0.09964    
H3       H      0.649675000000     0.472500000000     0.273850000000     0.09964    
H3       H      0.649675000000     0.472500000000     0.773850000000     0.09964    
H3       H      0.649675000000     0.972500000000     0.273850000000     0.09964    
H3       H      0.649675000000     0.972500000000     0.773850000000     0.09964    
H3       H      0.899675000000     0.472500000000     0.273850000000     0.09964    
H3       H      0.899675000000     0.472500000000     0.773850000000     0.09964    
H3       H      0.899675000000     0.972500000000     0.273850000000     0.09964    
H3       H      0.899675000000     0.972500000000     0.773850000000     0.09964    
H4       H      0.166875000000     0.419850000000     0.255700000000     0.133151   
H4       H      0.166875000000     0.419850000000     0.755700000000     0.133151   
H4       H      0.166875000000     0.919850000000     0.255700000000     0.133151   
H4       H      0.166875000000     0.919850000000     0.755700000000     0.133151   
H4       H      0.416875000000     0.419850000000     0.255700000000     0.133151   
H4       H      0.416875000000     0.419850000000     0.755700000000     0.133151   
H4       H      0.416875000000     0.919850000000     0.255700000000     0.133151   
H4       H      0.416875000000     0.919850000000     0.755700000000     0.133151   
H4       H      0.666875000000     0.419850000000     0.255700000000     0.133151   
H4       H      0.666875000000     0.419850000000     0.755700000000     0.133151   
H4       H      0.666875000000     0.919850000000     0.255700000000     0.133151   
H4       H      0.666875000000     0.919850000000     0.755700000000     0.133151   
H4       H      0.916875000000     0.419850000000     0.255700000000     0.133151   
H4       H      0.916875000000     0.419850000000     0.755700000000     0.133151   
H4       H      0.916875000000     0.919850000000     0.255700000000     0.133151   
H4       H      0.916875000000     0.919850000000     0.755700000000     0.133151   
H5       H      0.178675000000     0.415200000000     0.216850000000     0.118956   
H5       H      0.178675000000     0.415200000000     0.716850000000     0.118956   
H5       H      0.178675000000     0.915200000000     0.216850000000     0.118956   
H5       H      0.178675000000     0.915200000000     0.716850000000     0.118956   
H5       H      0.428675000000     0.415200000000     0.216850000000     0.118956   
H5       H      0.428675000000     0.415200000000     0.716850000000     0.118956   
H5       H      0.428675000000     0.915200000000     0.216850000000     0.118956   
H5       H      0.428675000000     0.915200000000     0.716850000000     0.118956   
H5       H      0.678675000000     0.415200000000     0.216850000000     0.118956   
H5       H      0.678675000000     0.415200000000     0.716850000000     0.118956   
H5       H      0.678675000000     0.915200000000     0.216850000000     0.118956   
H5       H      0.678675000000     0.915200000000     0.716850000000     0.118956   
H5       H      0.928675000000     0.415200000000     0.216850000000     0.118956   
H5       H      0.928675000000     0.415200000000     0.716850000000     0.118956   
H5       H      0.928675000000     0.915200000000     0.216850000000     0.118956   
H5       H      0.928675000000     0.915200000000     0.716850000000     0.118956   
H6       H      0.054450000000     0.497800000000     0.169800000000     0.149242   
H6       H      0.054450000000     0.497800000000     0.669800000000     0.149242   
H6       H      0.054450000000     0.997800000000     0.169800000000     0.149242   
H6       H      0.054450000000     0.997800000000     0.669800000000     0.149242   
H6       H      0.304450000000     0.497800000000     0.169800000000     0.149242   
H6       H      0.304450000000     0.497800000000     0.669800000000     0.149242   
H6       H      0.304450000000     0.997800000000     0.169800000000     0.149242   
H6       H      0.304450000000     0.997800000000     0.669800000000     0.149242   
H6       H      0.554450000000     0.497800000000     0.169800000000     0.149242   
H6       H      0.554450000000     0.497800000000     0.669800000000     0.149242   
H6       H      0.554450000000     0.997800000000     0.169800000000     0.149242   
H6       H      0.554450000000     0.997800000000     0.669800000000     0.149242   
H6       H      0.804450000000     0.497800000000     0.169800000000     0.149242   
H6       H      0.804450000000     0.497800000000     0.669800000000     0.149242   
H6       H      0.804450000000     0.997800000000     0.169800000000     0.149242   
H6       H      0.804450000000     0.997800000000     0.669800000000     0.149242   
H7       H      0.038125000000     0.032650000000     0.185800000000     0.138135   
H7       H      0.038125000000     0.032650000000     0.685800000000     0.138135   
H7       H      0.038125000000     0.532650000000     0.185800000000     0.138135   
H7       H      0.038125000000     0.532650000000     0.685800000000     0.138135   
H7       H      0.288125000000     0.032650000000     0.185800000000     0.138135   
H7       H      0.288125000000     0.032650000000     0.685800000000     0.138135   
H7       H      0.288125000000     0.532650000000     0.185800000000     0.138135   
H7       H      0.288125000000     0.532650000000     0.685800000000     0.138135   
H7       H      0.538125000000     0.032650000000     0.185800000000     0.138135   
H7       H      0.538125000000     0.032650000000     0.685800000000     0.138135   
H7       H      0.538125000000     0.532650000000     0.185800000000     0.138135   
H7       H      0.538125000000     0.532650000000     0.685800000000     0.138135   
H7       H      0.788125000000     0.032650000000     0.185800000000     0.138135   
H7       H      0.788125000000     0.032650000000     0.685800000000     0.138135   
H7       H      0.788125000000     0.532650000000     0.185800000000     0.138135   
H7       H      0.788125000000     0.532650000000     0.685800000000     0.138135   
H8       H      0.141350000000     0.455650000000     0.069350000000     0.105875   
H8       H      0.141350000000     0.455650000000     0.569350000000     0.105875   
H8       H      0.141350000000     0.955650000000     0.069350000000     0.105875   
H8       H      0.141350000000     0.955650000000     0.569350000000     0.105875   
H8       H      0.391350000000     0.455650000000     0.069350000000     0.105875   
H8       H      0.391350000000     0.455650000000     0.569350000000     0.105875   
H8       H      0.391350000000     0.955650000000     0.069350000000     0.105875   
H8       H      0.391350000000     0.955650000000     0.569350000000     0.105875   
H8       H      0.641350000000     0.455650000000     0.069350000000     0.105875   
H8       H      0.641350000000     0.455650000000     0.569350000000     0.105875   
H8       H      0.641350000000     0.955650000000     0.069350000000     0.105875   
H8       H      0.641350000000     0.955650000000     0.569350000000     0.105875   
H8       H      0.891350000000     0.455650000000     0.069350000000     0.105875   
H8       H      0.891350000000     0.455650000000     0.569350000000     0.105875   
H8       H      0.891350000000     0.955650000000     0.069350000000     0.105875   
H8       H      0.891350000000     0.955650000000     0.569350000000     0.105875   
H9       H      0.119925000000     0.421800000000     0.036850000000     0.09524    
H9       H      0.119925000000     0.421800000000     0.536850000000     0.09524    
H9       H      0.119925000000     0.921800000000     0.036850000000     0.09524    
H9       H      0.119925000000     0.921800000000     0.536850000000     0.09524    
H9       H      0.369925000000     0.421800000000     0.036850000000     0.09524    
H9       H      0.369925000000     0.421800000000     0.536850000000     0.09524    
H9       H      0.369925000000     0.921800000000     0.036850000000     0.09524    
H9       H      0.369925000000     0.921800000000     0.536850000000     0.09524    
H9       H      0.619925000000     0.421800000000     0.036850000000     0.09524    
H9       H      0.619925000000     0.421800000000     0.536850000000     0.09524    
H9       H      0.619925000000     0.921800000000     0.036850000000     0.09524    
H9       H      0.619925000000     0.921800000000     0.536850000000     0.09524    
H9       H      0.869925000000     0.421800000000     0.036850000000     0.09524    
H9       H      0.869925000000     0.421800000000     0.536850000000     0.09524    
H9       H      0.869925000000     0.921800000000     0.036850000000     0.09524    
H9       H      0.869925000000     0.921800000000     0.536850000000     0.09524    
H10      H      0.181750000000     0.450550000000     0.475400000000     0.114527   
H10      H      0.181750000000     0.450550000000     0.975400000000     0.114527   
H10      H      0.181750000000     0.950550000000     0.475400000000     0.114527   
H10      H      0.181750000000     0.950550000000     0.975400000000     0.114527   
H10      H      0.431750000000     0.450550000000     0.475400000000     0.114527   
H10      H      0.431750000000     0.450550000000     0.975400000000     0.114527   
H10      H      0.431750000000     0.950550000000     0.475400000000     0.114527   
H10      H      0.431750000000     0.950550000000     0.975400000000     0.114527   
H10      H      0.681750000000     0.450550000000     0.475400000000     0.114527   
H10      H      0.681750000000     0.450550000000     0.975400000000     0.114527   
H10      H      0.681750000000     0.950550000000     0.475400000000     0.114527   
H10      H      0.681750000000     0.950550000000     0.975400000000     0.114527   
H10      H      0.931750000000     0.450550000000     0.475400000000     0.114527   
H10      H      0.931750000000     0.450550000000     0.975400000000     0.114527   
H10      H      0.931750000000     0.950550000000     0.475400000000     0.114527   
H10      H      0.931750000000     0.950550000000     0.975400000000     0.114527   
H11      H      0.186200000000     0.417950000000     0.000600000000     0.131143   
H11      H      0.186200000000     0.417950000000     0.500600000000     0.131143   
H11      H      0.186200000000     0.917950000000     0.000600000000     0.131143   
H11      H      0.186200000000     0.917950000000     0.500600000000     0.131143   
H11      H      0.436200000000     0.417950000000     0.000600000000     0.131143   
H11      H      0.436200000000     0.417950000000     0.500600000000     0.131143   
H11      H      0.436200000000     0.917950000000     0.000600000000     0.131143   
H11      H      0.436200000000     0.917950000000     0.500600000000     0.131143   
H11      H      0.686200000000     0.417950000000     0.000600000000     0.131143   
H11      H      0.686200000000     0.417950000000     0.500600000000     0.131143   
H11      H      0.686200000000     0.917950000000     0.000600000000     0.131143   
H11      H      0.686200000000     0.917950000000     0.500600000000     0.131143   
H11      H      0.936200000000     0.417950000000     0.000600000000     0.131143   
H11      H      0.936200000000     0.417950000000     0.500600000000     0.131143   
H11      H      0.936200000000     0.917950000000     0.000600000000     0.131143   
H11      H      0.936200000000     0.917950000000     0.500600000000     0.131143   
H12      H      0.113950000000     0.395650000000     0.482700000000     0.105105   
H12      H      0.113950000000     0.395650000000     0.982700000000     0.105105   
H12      H      0.113950000000     0.895650000000     0.482700000000     0.105105   
H12      H      0.113950000000     0.895650000000     0.982700000000     0.105105   
H12      H      0.363950000000     0.395650000000     0.482700000000     0.105105   
H12      H      0.363950000000     0.395650000000     0.982700000000     0.105105   
H12      H      0.363950000000     0.895650000000     0.482700000000     0.105105   
H12      H      0.363950000000     0.895650000000     0.982700000000     0.105105   
H12      H      0.613950000000     0.395650000000     0.482700000000     0.105105   
H12      H      0.613950000000     0.395650000000     0.982700000000     0.105105   
H12      H      0.613950000000     0.895650000000     0.482700000000     0.105105   
H12      H      0.613950000000     0.895650000000     0.982700000000     0.105105   
H12      H      0.863950000000     0.395650000000     0.482700000000     0.105105   
H12      H      0.863950000000     0.395650000000     0.982700000000     0.105105   
H12      H      0.863950000000     0.895650000000     0.482700000000     0.105105   
H12      H      0.863950000000     0.895650000000     0.982700000000     0.105105   
H13      H      0.135600000000     0.389700000000     0.450000000000     0.099964   
H13      H      0.135600000000     0.389700000000     0.950000000000     0.099964   
H13      H      0.135600000000     0.889700000000     0.450000000000     0.099964   
H13      H      0.135600000000     0.889700000000     0.950000000000     0.099964   
H13      H      0.385600000000     0.389700000000     0.450000000000     0.099964   
H13      H      0.385600000000     0.389700000000     0.950000000000     0.099964   
H13      H      0.385600000000     0.889700000000     0.450000000000     0.099964   
H13      H      0.385600000000     0.889700000000     0.950000000000     0.099964   
H13      H      0.635600000000     0.389700000000     0.450000000000     0.099964   
H13      H      0.635600000000     0.389700000000     0.950000000000     0.099964   
H13      H      0.635600000000     0.889700000000     0.450000000000     0.099964   
H13      H      0.635600000000     0.889700000000     0.950000000000     0.099964   
H13      H      0.885600000000     0.389700000000     0.450000000000     0.099964   
H13      H      0.885600000000     0.389700000000     0.950000000000     0.099964   
H13      H      0.885600000000     0.889700000000     0.450000000000     0.099964   
H13      H      0.885600000000     0.889700000000     0.950000000000     0.099964   
H14      H      0.077950000000     0.408700000000     0.425400000000     0.149485   
H14      H      0.077950000000     0.408700000000     0.925400000000     0.149485   
H14      H      0.077950000000     0.908700000000     0.425400000000     0.149485   
H14      H      0.077950000000     0.908700000000     0.925400000000     0.149485   
H14      H      0.327950000000     0.408700000000     0.425400000000     0.149485   
H14      H      0.327950000000     0.408700000000     0.925400000000     0.149485   
H14      H      0.327950000000     0.908700000000     0.425400000000     0.149485   
H14      H      0.327950000000     0.908700000000     0.925400000000     0.149485   
H14      H      0.577950000000     0.408700000000     0.425400000000     0.149485   
H14      H      0.577950000000     0.408700000000     0.925400000000     0.149485   
H14      H      0.577950000000     0.908700000000     0.425400000000     0.149485   
H14      H      0.577950000000     0.908700000000     0.925400000000     0.149485   
H14      H      0.827950000000     0.408700000000     0.425400000000     0.149485   
H14      H      0.827950000000     0.408700000000     0.925400000000     0.149485   
H14      H      0.827950000000     0.908700000000     0.425400000000     0.149485   
H14      H      0.827950000000     0.908700000000     0.925400000000     0.149485   
H15      H      0.114100000000     0.442950000000     0.425900000000     0.11181    
H15      H      0.114100000000     0.442950000000     0.925900000000     0.11181    
H15      H      0.114100000000     0.942950000000     0.425900000000     0.11181    
H15      H      0.114100000000     0.942950000000     0.925900000000     0.11181    
H15      H      0.364100000000     0.442950000000     0.425900000000     0.11181    
H15      H      0.364100000000     0.442950000000     0.925900000000     0.11181    
H15      H      0.364100000000     0.942950000000     0.425900000000     0.11181    
H15      H      0.364100000000     0.942950000000     0.925900000000     0.11181    
H15      H      0.614100000000     0.442950000000     0.425900000000     0.11181    
H15      H      0.614100000000     0.442950000000     0.925900000000     0.11181    
H15      H      0.614100000000     0.942950000000     0.425900000000     0.11181    
H15      H      0.614100000000     0.942950000000     0.925900000000     0.11181    
H15      H      0.864100000000     0.442950000000     0.425900000000     0.11181    
H15      H      0.864100000000     0.442950000000     0.925900000000     0.11181    
H15      H      0.864100000000     0.942950000000     0.425900000000     0.11181    
H15      H      0.864100000000     0.942950000000     0.925900000000     0.11181    
H16      H      0.074000000000     0.485350000000     0.418100000000     0.104604   
H16      H      0.074000000000     0.485350000000     0.918100000000     0.104604   
H16      H      0.074000000000     0.985350000000     0.418100000000     0.104604   
H16      H      0.074000000000     0.985350000000     0.918100000000     0.104604   
H16      H      0.324000000000     0.485350000000     0.418100000000     0.104604   
H16      H      0.324000000000     0.485350000000     0.918100000000     0.104604   
H16      H      0.324000000000     0.985350000000     0.418100000000     0.104604   
H16      H      0.324000000000     0.985350000000     0.918100000000     0.104604   
H16      H      0.574000000000     0.485350000000     0.418100000000     0.104604   
H16      H      0.574000000000     0.485350000000     0.918100000000     0.104604   
H16      H      0.574000000000     0.985350000000     0.418100000000     0.104604   
H16      H      0.574000000000     0.985350000000     0.918100000000     0.104604   
H16      H      0.824000000000     0.485350000000     0.418100000000     0.104604   
H16      H      0.824000000000     0.485350000000     0.918100000000     0.104604   
H16      H      0.824000000000     0.985350000000     0.418100000000     0.104604   
H16      H      0.824000000000     0.985350000000     0.918100000000     0.104604   
H17      H      0.032650000000     0.459950000000     0.421350000000     0.112672   
H17      H      0.032650000000     0.459950000000     0.921350000000     0.112672   
H17      H      0.032650000000     0.959950000000     0.421350000000     0.112672   
H17      H      0.032650000000     0.959950000000     0.921350000000     0.112672   
H17      H      0.282650000000     0.459950000000     0.421350000000     0.112672   
H17      H      0.282650000000     0.459950000000     0.921350000000     0.112672   
H17      H      0.282650000000     0.959950000000     0.421350000000     0.112672   
H17      H      0.282650000000     0.959950000000     0.921350000000     0.112672   
H17      H      0.532650000000     0.459950000000     0.421350000000     0.112672   
H17      H      0.532650000000     0.459950000000     0.921350000000     0.112672   
H17      H      0.532650000000     0.959950000000     0.421350000000     0.112672   
H17      H      0.532650000000     0.959950000000     0.921350000000     0.112672   
H17      H      0.782650000000     0.459950000000     0.421350000000     0.112672   
H17      H      0.782650000000     0.459950000000     0.921350000000     0.112672   
H17      H      0.782650000000     0.959950000000     0.421350000000     0.112672   
H17      H      0.782650000000     0.959950000000     0.921350000000     0.112672   
H18      H      0.025425000000     0.431500000000     0.469100000000     0.139664   
H18      H      0.025425000000     0.431500000000     0.969100000000     0.139664   
H18      H      0.025425000000     0.931500000000     0.469100000000     0.139664   
H18      H      0.025425000000     0.931500000000     0.969100000000     0.139664   
H18      H      0.275425000000     0.431500000000     0.469100000000     0.139664   
H18      H      0.275425000000     0.431500000000     0.969100000000     0.139664   
H18      H      0.275425000000     0.931500000000     0.469100000000     0.139664   
H18      H      0.275425000000     0.931500000000     0.969100000000     0.139664   
H18      H      0.525425000000     0.431500000000     0.469100000000     0.139664   
H18      H      0.525425000000     0.431500000000     0.969100000000     0.139664   
H18      H      0.525425000000     0.931500000000     0.469100000000     0.139664   
H18      H      0.525425000000     0.931500000000     0.969100000000     0.139664   
H18      H      0.775425000000     0.431500000000     0.469100000000     0.139664   
H18      H      0.775425000000     0.431500000000     0.969100000000     0.139664   
H18      H      0.775425000000     0.931500000000     0.469100000000     0.139664   
H18      H      0.775425000000     0.931500000000     0.969100000000     0.139664   
H19      H      0.164000000000     0.004300000000     0.205700000000     0.1315     
H19      H      0.164000000000     0.004300000000     0.705700000000     0.1315     
H19      H      0.164000000000     0.504300000000     0.205700000000     0.1315     
H19      H      0.164000000000     0.504300000000     0.705700000000     0.1315     
H19      H      0.414000000000     0.004300000000     0.205700000000     0.1315     
H19      H      0.414000000000     0.004300000000     0.705700000000     0.1315     
H19      H      0.414000000000     0.504300000000     0.205700000000     0.1315     
H19      H      0.414000000000     0.504300000000     0.705700000000     0.1315     
H19      H      0.664000000000     0.004300000000     0.205700000000     0.1315     
H19      H      0.664000000000     0.004300000000     0.705700000000     0.1315     
H19      H      0.664000000000     0.504300000000     0.205700000000     0.1315     
H19      H      0.664000000000     0.504300000000     0.705700000000     0.1315     
H19      H      0.914000000000     0.004300000000     0.205700000000     0.1315     
H19      H      0.914000000000     0.004300000000     0.705700000000     0.1315     
H19      H      0.914000000000     0.504300000000     0.205700000000     0.1315     
H19      H      0.914000000000     0.504300000000     0.705700000000     0.1315     
H20      H      0.136575000000     0.463000000000     0.201500000000     0.139496   
H20      H      0.136575000000     0.463000000000     0.701500000000     0.139496   
H20      H      0.136575000000     0.963000000000     0.201500000000     0.139496   
H20      H      0.136575000000     0.963000000000     0.701500000000     0.139496   
H20      H      0.386575000000     0.463000000000     0.201500000000     0.139496   
H20      H      0.386575000000     0.463000000000     0.701500000000     0.139496   
H20      H      0.386575000000     0.963000000000     0.201500000000     0.139496   
H20      H      0.386575000000     0.963000000000     0.701500000000     0.139496   
H20      H      0.636575000000     0.463000000000     0.201500000000     0.139496   
H20      H      0.636575000000     0.463000000000     0.701500000000     0.139496   
H20      H      0.636575000000     0.963000000000     0.201500000000     0.139496   
H20      H      0.636575000000     0.963000000000     0.701500000000     0.139496   
H20      H      0.886575000000     0.463000000000     0.201500000000     0.139496   
H20      H      0.886575000000     0.463000000000     0.701500000000     0.139496   
H20      H      0.886575000000     0.963000000000     0.201500000000     0.139496   
H20      H      0.886575000000     0.963000000000     0.701500000000     0.139496   
H21      H      0.157250000000     0.466750000000     0.147200000000     0.138778   
H21      H      0.157250000000     0.466750000000     0.647200000000     0.138778   
H21      H      0.157250000000     0.966750000000     0.147200000000     0.138778   
H21      H      0.157250000000     0.966750000000     0.647200000000     0.138778   
H21      H      0.407250000000     0.466750000000     0.147200000000     0.138778   
H21      H      0.407250000000     0.466750000000     0.647200000000     0.138778   
H21      H      0.407250000000     0.966750000000     0.147200000000     0.138778   
H21      H      0.407250000000     0.966750000000     0.647200000000     0.138778   
H21      H      0.657250000000     0.466750000000     0.147200000000     0.138778   
H21      H      0.657250000000     0.466750000000     0.647200000000     0.138778   
H21      H      0.657250000000     0.966750000000     0.147200000000     0.138778   
H21      H      0.657250000000     0.966750000000     0.647200000000     0.138778   
H21      H      0.907250000000     0.466750000000     0.147200000000     0.138778   
H21      H      0.907250000000     0.466750000000     0.647200000000     0.138778   
H21      H      0.907250000000     0.966750000000     0.147200000000     0.138778   
H21      H      0.907250000000     0.966750000000     0.647200000000     0.138778   
H22      H      0.179650000000     0.438000000000     0.168100000000     0.104252   
H22      H      0.179650000000     0.438000000000     0.668100000000     0.104252   
H22      H      0.179650000000     0.938000000000     0.168100000000     0.104252   
H22      H      0.179650000000     0.938000000000     0.668100000000     0.104252   
H22      H      0.429650000000     0.438000000000     0.168100000000     0.104252   
H22      H      0.429650000000     0.438000000000     0.668100000000     0.104252   
H22      H      0.429650000000     0.938000000000     0.168100000000     0.104252   
H22      H      0.429650000000     0.938000000000     0.668100000000     0.104252   
H22      H      0.679650000000     0.438000000000     0.168100000000     0.104252   
H22      H      0.679650000000     0.438000000000     0.668100000000     0.104252   
H22      H      0.679650000000     0.938000000000     0.168100000000     0.104252   
H22      H      0.679650000000     0.938000000000     0.668100000000     0.104252   
H22      H      0.929650000000     0.438000000000     0.168100000000     0.104252   
H22      H      0.929650000000     0.438000000000     0.668100000000     0.104252   
H22      H      0.929650000000     0.938000000000     0.168100000000     0.104252   
H22      H      0.929650000000     0.938000000000     0.668100000000     0.104252   
H23      H      0.165250000000     0.274900000000     0.096200000000     0.109857   
H23      H      0.165250000000     0.274900000000     0.596200000000     0.109857   
H23      H      0.165250000000     0.774900000000     0.096200000000     0.109857   
H23      H      0.165250000000     0.774900000000     0.596200000000     0.109857   
H23      H      0.415250000000     0.274900000000     0.096200000000     0.109857   
H23      H      0.415250000000     0.274900000000     0.596200000000     0.109857   
H23      H      0.415250000000     0.774900000000     0.096200000000     0.109857   
H23      H      0.415250000000     0.774900000000     0.596200000000     0.109857   
H23      H      0.665250000000     0.274900000000     0.096200000000     0.109857   
H23      H      0.665250000000     0.274900000000     0.596200000000     0.109857   
H23      H      0.665250000000     0.774900000000     0.096200000000     0.109857   
H23      H      0.665250000000     0.774900000000     0.596200000000     0.109857   
H23      H      0.915250000000     0.274900000000     0.096200000000     0.109857   
H23      H      0.915250000000     0.274900000000     0.596200000000     0.109857   
H23      H      0.915250000000     0.774900000000     0.096200000000     0.109857   
H23      H      0.915250000000     0.774900000000     0.596200000000     0.109857   
H24      H      0.201825000000     0.257600000000     0.089000000000     0.111444   
H24      H      0.201825000000     0.257600000000     0.589000000000     0.111444   
H24      H      0.201825000000     0.757600000000     0.089000000000     0.111444   
H24      H      0.201825000000     0.757600000000     0.589000000000     0.111444   
H24      H      0.451825000000     0.257600000000     0.089000000000     0.111444   
H24      H      0.451825000000     0.257600000000     0.589000000000     0.111444   
H24      H      0.451825000000     0.757600000000     0.089000000000     0.111444   
H24      H      0.451825000000     0.757600000000     0.589000000000     0.111444   
H24      H      0.701825000000     0.257600000000     0.089000000000     0.111444   
H24      H      0.701825000000     0.257600000000     0.589000000000     0.111444   
H24      H      0.701825000000     0.757600000000     0.089000000000     0.111444   
H24      H      0.701825000000     0.757600000000     0.589000000000     0.111444   
H24      H      0.951825000000     0.257600000000     0.089000000000     0.111444   
H24      H      0.951825000000     0.257600000000     0.589000000000     0.111444   
H24      H      0.951825000000     0.757600000000     0.089000000000     0.111444   
H24      H      0.951825000000     0.757600000000     0.589000000000     0.111444   
H25      H      0.100425000000     0.191650000000     0.053400000000     0.133699   
H25      H      0.100425000000     0.191650000000     0.553400000000     0.133699   
H25      H      0.100425000000     0.691650000000     0.053400000000     0.133699   
H25      H      0.100425000000     0.691650000000     0.553400000000     0.133699   
H25      H      0.350425000000     0.191650000000     0.053400000000     0.133699   
H25      H      0.350425000000     0.191650000000     0.553400000000     0.133699   
H25      H      0.350425000000     0.691650000000     0.053400000000     0.133699   
H25      H      0.350425000000     0.691650000000     0.553400000000     0.133699   
H25      H      0.600425000000     0.191650000000     0.053400000000     0.133699   
H25      H      0.600425000000     0.191650000000     0.553400000000     0.133699   
H25      H      0.600425000000     0.691650000000     0.053400000000     0.133699   
H25      H      0.600425000000     0.691650000000     0.553400000000     0.133699   
H25      H      0.850425000000     0.191650000000     0.053400000000     0.133699   
H25      H      0.850425000000     0.191650000000     0.553400000000     0.133699   
H25      H      0.850425000000     0.691650000000     0.053400000000     0.133699   
H25      H      0.850425000000     0.691650000000     0.553400000000     0.133699   
H26      H      0.129025000000     0.207550000000     0.093200000000     0.108714   
H26      H      0.129025000000     0.207550000000     0.593200000000     0.108714   
H26      H      0.129025000000     0.707550000000     0.093200000000     0.108714   
H26      H      0.129025000000     0.707550000000     0.593200000000     0.108714   
H26      H      0.379025000000     0.207550000000     0.093200000000     0.108714   
H26      H      0.379025000000     0.207550000000     0.593200000000     0.108714   
H26      H      0.379025000000     0.707550000000     0.093200000000     0.108714   
H26      H      0.379025000000     0.707550000000     0.593200000000     0.108714   
H26      H      0.629025000000     0.207550000000     0.093200000000     0.108714   
H26      H      0.629025000000     0.207550000000     0.593200000000     0.108714   
H26      H      0.629025000000     0.707550000000     0.093200000000     0.108714   
H26      H      0.629025000000     0.707550000000     0.593200000000     0.108714   
H26      H      0.879025000000     0.207550000000     0.093200000000     0.108714   
H26      H      0.879025000000     0.207550000000     0.593200000000     0.108714   
H26      H      0.879025000000     0.707550000000     0.093200000000     0.108714   
H26      H      0.879025000000     0.707550000000     0.593200000000     0.108714   
H27      H      0.104375000000     0.264600000000     0.092700000000     0.149242   
H27      H      0.104375000000     0.264600000000     0.592700000000     0.149242   
H27      H      0.104375000000     0.764600000000     0.092700000000     0.149242   
H27      H      0.104375000000     0.764600000000     0.592700000000     0.149242   
H27      H      0.354375000000     0.264600000000     0.092700000000     0.149242   
H27      H      0.354375000000     0.264600000000     0.592700000000     0.149242   
H27      H      0.354375000000     0.764600000000     0.092700000000     0.149242   
H27      H      0.354375000000     0.764600000000     0.592700000000     0.149242   
H27      H      0.604375000000     0.264600000000     0.092700000000     0.149242   
H27      H      0.604375000000     0.264600000000     0.592700000000     0.149242   
H27      H      0.604375000000     0.764600000000     0.092700000000     0.149242   
H27      H      0.604375000000     0.764600000000     0.592700000000     0.149242   
H27      H      0.854375000000     0.264600000000     0.092700000000     0.149242   
H27      H      0.854375000000     0.264600000000     0.592700000000     0.149242   
H27      H      0.854375000000     0.764600000000     0.092700000000     0.149242   
H27      H      0.854375000000     0.764600000000     0.592700000000     0.149242   
H28      H      0.070925000000     0.228150000000     0.092450000000     0.125448   
H28      H      0.070925000000     0.228150000000     0.592450000000     0.125448   
H28      H      0.070925000000     0.728150000000     0.092450000000     0.125448   
H28      H      0.070925000000     0.728150000000     0.592450000000     0.125448   
H28      H      0.320925000000     0.228150000000     0.092450000000     0.125448   
H28      H      0.320925000000     0.228150000000     0.592450000000     0.125448   
H28      H      0.320925000000     0.728150000000     0.092450000000     0.125448   
H28      H      0.320925000000     0.728150000000     0.592450000000     0.125448   
H28      H      0.570925000000     0.228150000000     0.092450000000     0.125448   
H28      H      0.570925000000     0.228150000000     0.592450000000     0.125448   
H28      H      0.570925000000     0.728150000000     0.092450000000     0.125448   
H28      H      0.570925000000     0.728150000000     0.592450000000     0.125448   
H28      H      0.820925000000     0.228150000000     0.092450000000     0.125448   
H28      H      0.820925000000     0.228150000000     0.592450000000     0.125448   
H28      H      0.820925000000     0.728150000000     0.092450000000     0.125448   
H28      H      0.820925000000     0.728150000000     0.592450000000     0.125448   
H29      H      0.040475000000     0.263200000000     0.053550000000     0.153675   
H29      H      0.040475000000     0.263200000000     0.553550000000     0.153675   
H29      H      0.040475000000     0.763200000000     0.053550000000     0.153675   
H29      H      0.040475000000     0.763200000000     0.553550000000     0.153675   
H29      H      0.290475000000     0.263200000000     0.053550000000     0.153675   
H29      H      0.290475000000     0.263200000000     0.553550000000     0.153675   
H29      H      0.290475000000     0.763200000000     0.053550000000     0.153675   
H29      H      0.290475000000     0.763200000000     0.553550000000     0.153675   
H29      H      0.540475000000     0.263200000000     0.053550000000     0.153675   
H29      H      0.540475000000     0.263200000000     0.553550000000     0.153675   
H29      H      0.540475000000     0.763200000000     0.053550000000     0.153675   
H29      H      0.540475000000     0.763200000000     0.553550000000     0.153675   
H29      H      0.790475000000     0.263200000000     0.053550000000     0.153675   
H29      H      0.790475000000     0.263200000000     0.553550000000     0.153675   
H29      H      0.790475000000     0.763200000000     0.053550000000     0.153675   
H29      H      0.790475000000     0.763200000000     0.553550000000     0.153675   
H30      H      0.046175000000     0.228250000000     0.027500000000     0.140118   
H30      H      0.046175000000     0.228250000000     0.527500000000     0.140118   
H30      H      0.046175000000     0.728250000000     0.027500000000     0.140118   
H30      H      0.046175000000     0.728250000000     0.527500000000     0.140118   
H30      H      0.296175000000     0.228250000000     0.027500000000     0.140118   
H30      H      0.296175000000     0.228250000000     0.527500000000     0.140118   
H30      H      0.296175000000     0.728250000000     0.027500000000     0.140118   
H30      H      0.296175000000     0.728250000000     0.527500000000     0.140118   
H30      H      0.546175000000     0.228250000000     0.027500000000     0.140118   
H30      H      0.546175000000     0.228250000000     0.527500000000     0.140118   
H30      H      0.546175000000     0.728250000000     0.027500000000     0.140118   
H30      H      0.546175000000     0.728250000000     0.527500000000     0.140118   
H30      H      0.796175000000     0.228250000000     0.027500000000     0.140118   
H30      H      0.796175000000     0.228250000000     0.527500000000     0.140118   
H30      H      0.796175000000     0.728250000000     0.027500000000     0.140118   
H30      H      0.796175000000     0.728250000000     0.527500000000     0.140118   
H31      H      0.058900000000     0.409600000000     0.485600000000     0.104503   
H31      H      0.058900000000     0.409600000000     0.985600000000     0.104503   
H31      H      0.058900000000     0.909600000000     0.485600000000     0.104503   
H31      H      0.058900000000     0.909600000000     0.985600000000     0.104503   
H31      H      0.308900000000     0.409600000000     0.485600000000     0.104503   
H31      H      0.308900000000     0.409600000000     0.985600000000     0.104503   
H31      H      0.308900000000     0.909600000000     0.485600000000     0.104503   
H31      H      0.308900000000     0.909600000000     0.985600000000     0.104503   
H31      H      0.558900000000     0.409600000000     0.485600000000     0.104503   
H31      H      0.558900000000     0.409600000000     0.985600000000     0.104503   
H31      H      0.558900000000     0.909600000000     0.485600000000     0.104503   
H31      H      0.558900000000     0.909600000000     0.985600000000     0.104503   
H31      H      0.808900000000     0.409600000000     0.485600000000     0.104503   
H31      H      0.808900000000     0.409600000000     0.985600000000     0.104503   
H31      H      0.808900000000     0.909600000000     0.485600000000     0.104503   
H31      H      0.808900000000     0.909600000000     0.985600000000     0.104503   
H32      H      0.035600000000     0.258900000000     0.476350000000     0.108714   
H32      H      0.035600000000     0.258900000000     0.976350000000     0.108714   
H32      H      0.035600000000     0.758900000000     0.476350000000     0.108714   
H32      H      0.035600000000     0.758900000000     0.976350000000     0.108714   
H32      H      0.285600000000     0.258900000000     0.476350000000     0.108714   
H32      H      0.285600000000     0.258900000000     0.976350000000     0.108714   
H32      H      0.285600000000     0.758900000000     0.476350000000     0.108714   
H32      H      0.285600000000     0.758900000000     0.976350000000     0.108714   
H32      H      0.535600000000     0.258900000000     0.476350000000     0.108714   
H32      H      0.535600000000     0.258900000000     0.976350000000     0.108714   
H32      H      0.535600000000     0.758900000000     0.476350000000     0.108714   
H32      H      0.535600000000     0.758900000000     0.976350000000     0.108714   
H32      H      0.785600000000     0.258900000000     0.476350000000     0.108714   
H32      H      0.785600000000     0.258900000000     0.976350000000     0.108714   
H32      H      0.785600000000     0.758900000000     0.476350000000     0.108714   
H32      H      0.785600000000     0.758900000000     0.976350000000     0.108714   
H33      H      0.189625000000     0.198250000000     0.063200000000     0.104596   
H33      H      0.189625000000     0.198250000000     0.563200000000     0.104596   
H33      H      0.189625000000     0.698250000000     0.063200000000     0.104596   
H33      H      0.189625000000     0.698250000000     0.563200000000     0.104596   
H33      H      0.439625000000     0.198250000000     0.063200000000     0.104596   
H33      H      0.439625000000     0.198250000000     0.563200000000     0.104596   
H33      H      0.439625000000     0.698250000000     0.063200000000     0.104596   
H33      H      0.439625000000     0.698250000000     0.563200000000     0.104596   
H33      H      0.689625000000     0.198250000000     0.063200000000     0.104596   
H33      H      0.689625000000     0.198250000000     0.563200000000     0.104596   
H33      H      0.689625000000     0.698250000000     0.063200000000     0.104596   
H33      H      0.689625000000     0.698250000000     0.563200000000     0.104596   
H33      H      0.939625000000     0.198250000000     0.063200000000     0.104596   
H33      H      0.939625000000     0.198250000000     0.563200000000     0.104596   
H33      H      0.939625000000     0.698250000000     0.063200000000     0.104596   
H33      H      0.939625000000     0.698250000000     0.563200000000     0.104596   
H34      H      0.152200000000     0.178850000000     0.029850000000     0.09964    
H34      H      0.152200000000     0.178850000000     0.529850000000     0.09964    
H34      H      0.152200000000     0.678850000000     0.029850000000     0.09964    
H34      H      0.152200000000     0.678850000000     0.529850000000     0.09964    
H34      H      0.402200000000     0.178850000000     0.029850000000     0.09964    
H34      H      0.402200000000     0.178850000000     0.529850000000     0.09964    
H34      H      0.402200000000     0.678850000000     0.029850000000     0.09964    
H34      H      0.402200000000     0.678850000000     0.529850000000     0.09964    
H34      H      0.652200000000     0.178850000000     0.029850000000     0.09964    
H34      H      0.652200000000     0.178850000000     0.529850000000     0.09964    
H34      H      0.652200000000     0.678850000000     0.029850000000     0.09964    
H34      H      0.652200000000     0.678850000000     0.529850000000     0.09964    
H34      H      0.902200000000     0.178850000000     0.029850000000     0.09964    
H34      H      0.902200000000     0.178850000000     0.529850000000     0.09964    
H34      H      0.902200000000     0.678850000000     0.029850000000     0.09964    
H34      H      0.902200000000     0.678850000000     0.529850000000     0.09964    
H35      H      0.117625000000     0.314250000000     0.069300000000     0.133152   
H35      H      0.117625000000     0.314250000000     0.569300000000     0.133152   
H35      H      0.117625000000     0.814250000000     0.069300000000     0.133152   
H35      H      0.117625000000     0.814250000000     0.569300000000     0.133152   
H35      H      0.367625000000     0.314250000000     0.069300000000     0.133152   
H35      H      0.367625000000     0.314250000000     0.569300000000     0.133152   
H35      H      0.367625000000     0.814250000000     0.069300000000     0.133152   
H35      H      0.367625000000     0.814250000000     0.569300000000     0.133152   
H35      H      0.617625000000     0.314250000000     0.069300000000     0.133152   
H35      H      0.617625000000     0.314250000000     0.569300000000     0.133152   
H35      H      0.617625000000     0.814250000000     0.069300000000     0.133152   
H35      H      0.617625000000     0.814250000000     0.569300000000     0.133152   
H35      H      0.867625000000     0.314250000000     0.069300000000     0.133152   
H35      H      0.867625000000     0.314250000000     0.569300000000     0.133152   
H35      H      0.867625000000     0.814250000000     0.069300000000     0.133152   
H35      H      0.867625000000     0.814250000000     0.569300000000     0.133152   
H36      H      0.118275000000     0.332350000000     0.032250000000     0.120628   
H36      H      0.118275000000     0.332350000000     0.532250000000     0.120628   
H36      H      0.118275000000     0.832350000000     0.032250000000     0.120628   
H36      H      0.118275000000     0.832350000000     0.532250000000     0.120628   
H36      H      0.368275000000     0.332350000000     0.032250000000     0.120628   
H36      H      0.368275000000     0.332350000000     0.532250000000     0.120628   
H36      H      0.368275000000     0.832350000000     0.032250000000     0.120628   
H36      H      0.368275000000     0.832350000000     0.532250000000     0.120628   
H36      H      0.618275000000     0.332350000000     0.032250000000     0.120628   
H36      H      0.618275000000     0.332350000000     0.532250000000     0.120628   
H36      H      0.618275000000     0.832350000000     0.032250000000     0.120628   
H36      H      0.618275000000     0.832350000000     0.532250000000     0.120628   
H36      H      0.868275000000     0.332350000000     0.032250000000     0.120628   
H36      H      0.868275000000     0.332350000000     0.532250000000     0.120628   
H36      H      0.868275000000     0.832350000000     0.032250000000     0.120628   
H36      H      0.868275000000     0.832350000000     0.532250000000     0.120628   
H37      H      0.031875000000     0.436800000000     0.201550000000     0.118956   
H37      H      0.031875000000     0.436800000000     0.701550000000     0.118956   
H37      H      0.031875000000     0.936800000000     0.201550000000     0.118956   
H37      H      0.031875000000     0.936800000000     0.701550000000     0.118956   
H37      H      0.281875000000     0.436800000000     0.201550000000     0.118956   
H37      H      0.281875000000     0.436800000000     0.701550000000     0.118956   
H37      H      0.281875000000     0.936800000000     0.201550000000     0.118956   
H37      H      0.281875000000     0.936800000000     0.701550000000     0.118956   
H37      H      0.531875000000     0.436800000000     0.201550000000     0.118956   
H37      H      0.531875000000     0.436800000000     0.701550000000     0.118956   
H37      H      0.531875000000     0.936800000000     0.201550000000     0.118956   
H37      H      0.531875000000     0.936800000000     0.701550000000     0.118956   
H37      H      0.781875000000     0.436800000000     0.201550000000     0.118956   
H37      H      0.781875000000     0.436800000000     0.701550000000     0.118956   
H37      H      0.781875000000     0.936800000000     0.201550000000     0.118956   
H37      H      0.781875000000     0.936800000000     0.701550000000     0.118956   
H38      H      0.234625000000     0.424050000000     0.188350000000     0.104252   
H38      H      0.234625000000     0.424050000000     0.688350000000     0.104252   
H38      H      0.234625000000     0.924050000000     0.188350000000     0.104252   
H38      H      0.234625000000     0.924050000000     0.688350000000     0.104252   
H38      H      0.484625000000     0.424050000000     0.188350000000     0.104252   
H38      H      0.484625000000     0.424050000000     0.688350000000     0.104252   
H38      H      0.484625000000     0.924050000000     0.188350000000     0.104252   
H38      H      0.484625000000     0.924050000000     0.688350000000     0.104252   
H38      H      0.734625000000     0.424050000000     0.188350000000     0.104252   
H38      H      0.734625000000     0.424050000000     0.688350000000     0.104252   
H38      H      0.734625000000     0.924050000000     0.188350000000     0.104252   
H38      H      0.734625000000     0.924050000000     0.688350000000     0.104252   
H38      H      0.984625000000     0.424050000000     0.188350000000     0.104252   
H38      H      0.984625000000     0.424050000000     0.688350000000     0.104252   
H38      H      0.984625000000     0.924050000000     0.188350000000     0.104252   
H38      H      0.984625000000     0.924050000000     0.688350000000     0.104252   
H39      H      0.219625000000     0.015700000000     0.169150000000     0.138778   
H39      H      0.219625000000     0.015700000000     0.669150000000     0.138778   
H39      H      0.219625000000     0.515700000000     0.169150000000     0.138778   
H39      H      0.219625000000     0.515700000000     0.669150000000     0.138778   
H39      H      0.469625000000     0.015700000000     0.169150000000     0.138778   
H39      H      0.469625000000     0.015700000000     0.669150000000     0.138778   
H39      H      0.469625000000     0.515700000000     0.169150000000     0.138778   
H39      H      0.469625000000     0.515700000000     0.669150000000     0.138778   
H39      H      0.719625000000     0.015700000000     0.169150000000     0.138778   
H39      H      0.719625000000     0.015700000000     0.669150000000     0.138778   
H39      H      0.719625000000     0.515700000000     0.169150000000     0.138778   
H39      H      0.719625000000     0.515700000000     0.669150000000     0.138778   
H39      H      0.969625000000     0.015700000000     0.169150000000     0.138778   
H39      H      0.969625000000     0.015700000000     0.669150000000     0.138778   
H39      H      0.969625000000     0.515700000000     0.169150000000     0.138778   
H39      H      0.969625000000     0.515700000000     0.669150000000     0.138778   
H40      H      0.221775000000     0.482200000000     0.139150000000     0.139495   
H40      H      0.221775000000     0.482200000000     0.639150000000     0.139495   
H40      H      0.221775000000     0.982200000000     0.139150000000     0.139495   
H40      H      0.221775000000     0.982200000000     0.639150000000     0.139495   
H40      H      0.471775000000     0.482200000000     0.139150000000     0.139495   
H40      H      0.471775000000     0.482200000000     0.639150000000     0.139495   
H40      H      0.471775000000     0.982200000000     0.139150000000     0.139495   
H40      H      0.471775000000     0.982200000000     0.639150000000     0.139495   
H40      H      0.721775000000     0.482200000000     0.139150000000     0.139495   
H40      H      0.721775000000     0.482200000000     0.639150000000     0.139495   
H40      H      0.721775000000     0.982200000000     0.139150000000     0.139495   
H40      H      0.721775000000     0.982200000000     0.639150000000     0.139495   
H40      H      0.971775000000     0.482200000000     0.139150000000     0.139495   
H40      H      0.971775000000     0.482200000000     0.639150000000     0.139495   
H40      H      0.971775000000     0.982200000000     0.139150000000     0.139495   
H40      H      0.971775000000     0.982200000000     0.639150000000     0.139495   
H41      H      0.038100000000     0.302050000000     0.492300000000     0.1315     
H41      H      0.038100000000     0.302050000000     0.992300000000     0.1315     
H41      H      0.038100000000     0.802050000000     0.492300000000     0.1315     
H41      H      0.038100000000     0.802050000000     0.992300000000     0.1315     
H41      H      0.288100000000     0.302050000000     0.492300000000     0.1315     
H41      H      0.288100000000     0.302050000000     0.992300000000     0.1315     
H41      H      0.288100000000     0.802050000000     0.492300000000     0.1315     
H41      H      0.288100000000     0.802050000000     0.992300000000     0.1315     
H41      H      0.538100000000     0.302050000000     0.492300000000     0.1315     
H41      H      0.538100000000     0.302050000000     0.992300000000     0.1315     
H41      H      0.538100000000     0.802050000000     0.492300000000     0.1315     
H41      H      0.538100000000     0.802050000000     0.992300000000     0.1315     
H41      H      0.788100000000     0.302050000000     0.492300000000     0.1315     
H41      H      0.788100000000     0.302050000000     0.992300000000     0.1315     
H41      H      0.788100000000     0.802050000000     0.492300000000     0.1315     
H41      H      0.788100000000     0.802050000000     0.992300000000     0.1315     
H42      H      0.217850000000     0.474800000000     0.060750000000     0.139664   
H42      H      0.217850000000     0.474800000000     0.560750000000     0.139664   
H42      H      0.217850000000     0.974800000000     0.060750000000     0.139664   
H42      H      0.217850000000     0.974800000000     0.560750000000     0.139664   
H42      H      0.467850000000     0.474800000000     0.060750000000     0.139664   
H42      H      0.467850000000     0.474800000000     0.560750000000     0.139664   
H42      H      0.467850000000     0.974800000000     0.060750000000     0.139664   
H42      H      0.467850000000     0.974800000000     0.560750000000     0.139664   
H42      H      0.717850000000     0.474800000000     0.060750000000     0.139664   
H42      H      0.717850000000     0.474800000000     0.560750000000     0.139664   
H42      H      0.717850000000     0.974800000000     0.060750000000     0.139664   
H42      H      0.717850000000     0.974800000000     0.560750000000     0.139664   
H42      H      0.967850000000     0.474800000000     0.060750000000     0.139664   
H42      H      0.967850000000     0.474800000000     0.560750000000     0.139664   
H42      H      0.967850000000     0.974800000000     0.060750000000     0.139664   
H42      H      0.967850000000     0.974800000000     0.560750000000     0.139664   
H43      H      0.170725000000     0.013700000000     0.267700000000     0.112672   
H43      H      0.170725000000     0.013700000000     0.767700000000     0.112672   
H43      H      0.170725000000     0.513700000000     0.267700000000     0.112672   
H43      H      0.170725000000     0.513700000000     0.767700000000     0.112672   
H43      H      0.420725000000     0.013700000000     0.267700000000     0.112672   
H43      H      0.420725000000     0.013700000000     0.767700000000     0.112672   
H43      H      0.420725000000     0.513700000000     0.267700000000     0.112672   
H43      H      0.420725000000     0.513700000000     0.767700000000     0.112672   
H43      H      0.670725000000     0.013700000000     0.267700000000     0.112672   
H43      H      0.670725000000     0.013700000000     0.767700000000     0.112672   
H43      H      0.670725000000     0.513700000000     0.267700000000     0.112672   
H43      H      0.670725000000     0.513700000000     0.767700000000     0.112672   
H43      H      0.920725000000     0.013700000000     0.267700000000     0.112672   
H43      H      0.920725000000     0.013700000000     0.767700000000     0.112672   
H43      H      0.920725000000     0.513700000000     0.267700000000     0.112672   
H43      H      0.920725000000     0.513700000000     0.767700000000     0.112672   
H44      H      0.084750000000     0.225100000000     0.403800000000     0.116352   
H44      H      0.084750000000     0.225100000000     0.903800000000     0.116352   
H44      H      0.084750000000     0.725100000000     0.403800000000     0.116352   
H44      H      0.084750000000     0.725100000000     0.903800000000     0.116352   
H44      H      0.334750000000     0.225100000000     0.403800000000     0.116352   
H44      H      0.334750000000     0.225100000000     0.903800000000     0.116352   
H44      H      0.334750000000     0.725100000000     0.403800000000     0.116352   
H44      H      0.334750000000     0.725100000000     0.903800000000     0.116352   
H44      H      0.584750000000     0.225100000000     0.403800000000     0.116352   
H44      H      0.584750000000     0.225100000000     0.903800000000     0.116352   
H44      H      0.584750000000     0.725100000000     0.403800000000     0.116352   
H44      H      0.584750000000     0.725100000000     0.903800000000     0.116352   
H44      H      0.834750000000     0.225100000000     0.403800000000     0.116352   
H44      H      0.834750000000     0.225100000000     0.903800000000     0.116352   
H44      H      0.834750000000     0.725100000000     0.403800000000     0.116352   
H44      H      0.834750000000     0.725100000000     0.903800000000     0.116352   
H45      H      0.195550000000     0.002200000000     0.330200000000     0.111444   
H45      H      0.195550000000     0.002200000000     0.830200000000     0.111444   
H45      H      0.195550000000     0.502200000000     0.330200000000     0.111444   
H45      H      0.195550000000     0.502200000000     0.830200000000     0.111444   
H45      H      0.445550000000     0.002200000000     0.330200000000     0.111444   
H45      H      0.445550000000     0.002200000000     0.830200000000     0.111444   
H45      H      0.445550000000     0.502200000000     0.330200000000     0.111444   
H45      H      0.445550000000     0.502200000000     0.830200000000     0.111444   
H45      H      0.695550000000     0.002200000000     0.330200000000     0.111444   
H45      H      0.695550000000     0.002200000000     0.830200000000     0.111444   
H45      H      0.695550000000     0.502200000000     0.330200000000     0.111444   
H45      H      0.695550000000     0.502200000000     0.830200000000     0.111444   
H45      H      0.945550000000     0.002200000000     0.330200000000     0.111444   
H45      H      0.945550000000     0.002200000000     0.830200000000     0.111444   
H45      H      0.945550000000     0.502200000000     0.330200000000     0.111444   
H45      H      0.945550000000     0.502200000000     0.830200000000     0.111444   
H46      H      0.071325000000     0.084800000000     0.283150000000     0.109857   
H46      H      0.071325000000     0.084800000000     0.783150000000     0.109857   
H46      H      0.071325000000     0.584800000000     0.283150000000     0.109857   
H46      H      0.071325000000     0.584800000000     0.783150000000     0.109857   
H46      H      0.321325000000     0.084800000000     0.283150000000     0.109857   
H46      H      0.321325000000     0.084800000000     0.783150000000     0.109857   
H46      H      0.321325000000     0.584800000000     0.283150000000     0.109857   
H46      H      0.321325000000     0.584800000000     0.783150000000     0.109857   
H46      H      0.571325000000     0.084800000000     0.283150000000     0.109857   
H46      H      0.571325000000     0.084800000000     0.783150000000     0.109857   
H46      H      0.571325000000     0.584800000000     0.283150000000     0.109857   
H46      H      0.571325000000     0.584800000000     0.783150000000     0.109857   
H46      H      0.821325000000     0.084800000000     0.283150000000     0.109857   
H46      H      0.821325000000     0.084800000000     0.783150000000     0.109857   
H46      H      0.821325000000     0.584800000000     0.283150000000     0.109857   
H46      H      0.821325000000     0.584800000000     0.783150000000     0.109857   
H47      H      0.083125000000     0.080150000000     0.244300000000     0.129742   
H47      H      0.083125000000     0.080150000000     0.744300000000     0.129742   
H47      H      0.083125000000     0.580150000000     0.244300000000     0.129742   
H47      H      0.083125000000     0.580150000000     0.744300000000     0.129742   
H47      H      0.333125000000     0.080150000000     0.244300000000     0.129742   
H47      H      0.333125000000     0.080150000000     0.744300000000     0.129742   
H47      H      0.333125000000     0.580150000000     0.244300000000     0.129742   
H47      H      0.333125000000     0.580150000000     0.744300000000     0.129742   
H47      H      0.583125000000     0.080150000000     0.244300000000     0.129742   
H47      H      0.583125000000     0.080150000000     0.744300000000     0.129742   
H47      H      0.583125000000     0.580150000000     0.244300000000     0.129742   
H47      H      0.583125000000     0.580150000000     0.744300000000     0.129742   
H47      H      0.833125000000     0.080150000000     0.244300000000     0.129742   
H47      H      0.833125000000     0.080150000000     0.744300000000     0.129742   
H47      H      0.833125000000     0.580150000000     0.244300000000     0.129742   
H47      H      0.833125000000     0.580150000000     0.744300000000     0.129742   
H48      H      0.100325000000     0.027500000000     0.226150000000     0.104604   
H48      H      0.100325000000     0.027500000000     0.726150000000     0.104604   
H48      H      0.100325000000     0.527500000000     0.226150000000     0.104604   
H48      H      0.100325000000     0.527500000000     0.726150000000     0.104604   
H48      H      0.350325000000     0.027500000000     0.226150000000     0.104604   
H48      H      0.350325000000     0.027500000000     0.726150000000     0.104604   
H48      H      0.350325000000     0.527500000000     0.226150000000     0.104604   
H48      H      0.350325000000     0.527500000000     0.726150000000     0.104604   
H48      H      0.600325000000     0.027500000000     0.226150000000     0.104604   
H48      H      0.600325000000     0.027500000000     0.726150000000     0.104604   
H48      H      0.600325000000     0.527500000000     0.226150000000     0.104604   
H48      H      0.600325000000     0.527500000000     0.726150000000     0.104604   
H48      H      0.850325000000     0.027500000000     0.226150000000     0.104604   
H48      H      0.850325000000     0.027500000000     0.726150000000     0.104604   
H48      H      0.850325000000     0.527500000000     0.226150000000     0.104604   
H48      H      0.850325000000     0.527500000000     0.726150000000     0.104604   
H49      H      0.079275000000     0.486300000000     0.232300000000     0.106124   
H49      H      0.079275000000     0.486300000000     0.732300000000     0.106124   
H49      H      0.079275000000     0.986300000000     0.232300000000     0.106124   
H49      H      0.079275000000     0.986300000000     0.732300000000     0.106124   
H49      H      0.329275000000     0.486300000000     0.232300000000     0.106124   
H49      H      0.329275000000     0.486300000000     0.732300000000     0.106124   
H49      H      0.329275000000     0.986300000000     0.232300000000     0.106124   
H49      H      0.329275000000     0.986300000000     0.732300000000     0.106124   
H49      H      0.579275000000     0.486300000000     0.232300000000     0.106124   
H49      H      0.579275000000     0.486300000000     0.732300000000     0.106124   
H49      H      0.579275000000     0.986300000000     0.232300000000     0.106124   
H49      H      0.579275000000     0.986300000000     0.732300000000     0.106124   
H49      H      0.829275000000     0.486300000000     0.232300000000     0.106124   
H49      H      0.829275000000     0.486300000000     0.732300000000     0.106124   
H49      H      0.829275000000     0.986300000000     0.232300000000     0.106124   
H49      H      0.829275000000     0.986300000000     0.732300000000     0.106124   
H50      H      0.086000000000     0.495700000000     0.294300000000     0.105875   
H50      H      0.086000000000     0.495700000000     0.794300000000     0.105875   
H50      H      0.086000000000     0.995700000000     0.294300000000     0.105875   
H50      H      0.086000000000     0.995700000000     0.794300000000     0.105875   
H50      H      0.336000000000     0.495700000000     0.294300000000     0.105875   
H50      H      0.336000000000     0.495700000000     0.794300000000     0.105875   
H50      H      0.336000000000     0.995700000000     0.294300000000     0.105875   
H50      H      0.336000000000     0.995700000000     0.794300000000     0.105875   
H50      H      0.586000000000     0.495700000000     0.294300000000     0.105875   
H50      H      0.586000000000     0.495700000000     0.794300000000     0.105875   
H50      H      0.586000000000     0.995700000000     0.294300000000     0.105875   
H50      H      0.586000000000     0.995700000000     0.794300000000     0.105875   
H50      H      0.836000000000     0.495700000000     0.294300000000     0.105875   
H50      H      0.836000000000     0.495700000000     0.794300000000     0.105875   
H50      H      0.836000000000     0.995700000000     0.294300000000     0.105875   
H50      H      0.836000000000     0.995700000000     0.794300000000     0.105875   
H51      H      0.113425000000     0.037000000000     0.298500000000     0.09524    
H51      H      0.113425000000     0.037000000000     0.798500000000     0.09524    
H51      H      0.113425000000     0.537000000000     0.298500000000     0.09524    
H51      H      0.113425000000     0.537000000000     0.798500000000     0.09524    
H51      H      0.363425000000     0.037000000000     0.298500000000     0.09524    
H51      H      0.363425000000     0.037000000000     0.798500000000     0.09524    
H51      H      0.363425000000     0.537000000000     0.298500000000     0.09524    
H51      H      0.363425000000     0.537000000000     0.798500000000     0.09524    
H51      H      0.613425000000     0.037000000000     0.298500000000     0.09524    
H51      H      0.613425000000     0.037000000000     0.798500000000     0.09524    
H51      H      0.613425000000     0.537000000000     0.298500000000     0.09524    
H51      H      0.613425000000     0.537000000000     0.798500000000     0.09524    
H51      H      0.863425000000     0.037000000000     0.298500000000     0.09524    
H51      H      0.863425000000     0.037000000000     0.798500000000     0.09524    
H51      H      0.863425000000     0.537000000000     0.298500000000     0.09524    
H51      H      0.863425000000     0.537000000000     0.798500000000     0.09524    
H52      H      0.092750000000     0.033250000000     0.352800000000     0.114527   
H52      H      0.092750000000     0.033250000000     0.852800000000     0.114527   
H52      H      0.092750000000     0.533250000000     0.352800000000     0.114527   
H52      H      0.092750000000     0.533250000000     0.852800000000     0.114527   
H52      H      0.342750000000     0.033250000000     0.352800000000     0.114527   
H52      H      0.342750000000     0.033250000000     0.852800000000     0.114527   
H52      H      0.342750000000     0.533250000000     0.352800000000     0.114527   
H52      H      0.342750000000     0.533250000000     0.852800000000     0.114527   
H52      H      0.592750000000     0.033250000000     0.352800000000     0.114527   
H52      H      0.592750000000     0.033250000000     0.852800000000     0.114527   
H52      H      0.592750000000     0.533250000000     0.352800000000     0.114527   
H52      H      0.592750000000     0.533250000000     0.852800000000     0.114527   
H52      H      0.842750000000     0.033250000000     0.352800000000     0.114527   
H52      H      0.842750000000     0.033250000000     0.852800000000     0.114527   
H52      H      0.842750000000     0.533250000000     0.352800000000     0.114527   
H52      H      0.842750000000     0.533250000000     0.852800000000     0.114527   
H53      H      0.211875000000     0.467350000000     0.314200000000     0.131143   
H53      H      0.211875000000     0.467350000000     0.814200000000     0.131143   
H53      H      0.211875000000     0.967350000000     0.314200000000     0.131143   
H53      H      0.211875000000     0.967350000000     0.814200000000     0.131143   
H53      H      0.461875000000     0.467350000000     0.314200000000     0.131143   
H53      H      0.461875000000     0.467350000000     0.814200000000     0.131143   
H53      H      0.461875000000     0.967350000000     0.314200000000     0.131143   
H53      H      0.461875000000     0.967350000000     0.814200000000     0.131143   
H53      H      0.711875000000     0.467350000000     0.314200000000     0.131143   
H53      H      0.711875000000     0.467350000000     0.814200000000     0.131143   
H53      H      0.711875000000     0.967350000000     0.314200000000     0.131143   
H53      H      0.711875000000     0.967350000000     0.814200000000     0.131143   
H53      H      0.961875000000     0.467350000000     0.314200000000     0.131143   
H53      H      0.961875000000     0.467350000000     0.814200000000     0.131143   
H53      H      0.961875000000     0.967350000000     0.314200000000     0.131143   
H53      H      0.961875000000     0.967350000000     0.814200000000     0.131143   
H54      H      0.070350000000     0.062000000000     0.331900000000     0.105105   
H54      H      0.070350000000     0.062000000000     0.831900000000     0.105105   
H54      H      0.070350000000     0.562000000000     0.331900000000     0.105105   
H54      H      0.070350000000     0.562000000000     0.831900000000     0.105105   
H54      H      0.320350000000     0.062000000000     0.331900000000     0.105105   
H54      H      0.320350000000     0.062000000000     0.831900000000     0.105105   
H54      H      0.320350000000     0.562000000000     0.331900000000     0.105105   
H54      H      0.320350000000     0.562000000000     0.831900000000     0.105105   
H54      H      0.570350000000     0.062000000000     0.331900000000     0.105105   
H54      H      0.570350000000     0.062000000000     0.831900000000     0.105105   
H54      H      0.570350000000     0.562000000000     0.331900000000     0.105105   
H54      H      0.570350000000     0.562000000000     0.831900000000     0.105105   
H54      H      0.820350000000     0.062000000000     0.331900000000     0.105105   
H54      H      0.820350000000     0.062000000000     0.831900000000     0.105105   
H54      H      0.820350000000     0.562000000000     0.331900000000     0.105105   
H54      H      0.820350000000     0.562000000000     0.831900000000     0.105105   
H55      H      0.030375000000     0.484300000000     0.330850000000     0.135405   
H55      H      0.030375000000     0.484300000000     0.830850000000     0.135405   
H55      H      0.030375000000     0.984300000000     0.330850000000     0.135405   
H55      H      0.030375000000     0.984300000000     0.830850000000     0.135405   
H55      H      0.280375000000     0.484300000000     0.330850000000     0.135405   
H55      H      0.280375000000     0.484300000000     0.830850000000     0.135405   
H55      H      0.280375000000     0.984300000000     0.330850000000     0.135405   
H55      H      0.280375000000     0.984300000000     0.830850000000     0.135405   
H55      H      0.530375000000     0.484300000000     0.330850000000     0.135405   
H55      H      0.530375000000     0.484300000000     0.830850000000     0.135405   
H55      H      0.530375000000     0.984300000000     0.330850000000     0.135405   
H55      H      0.530375000000     0.984300000000     0.830850000000     0.135405   
H55      H      0.780375000000     0.484300000000     0.330850000000     0.135405   
H55      H      0.780375000000     0.484300000000     0.830850000000     0.135405   
H55      H      0.780375000000     0.984300000000     0.330850000000     0.135405   
H55      H      0.780375000000     0.984300000000     0.830850000000     0.135405   
H56      H      0.015375000000     0.075950000000     0.311650000000     0.116352   
H56      H      0.015375000000     0.075950000000     0.811650000000     0.116352   
H56      H      0.015375000000     0.575950000000     0.311650000000     0.116352   
H56      H      0.015375000000     0.575950000000     0.811650000000     0.116352   
H56      H      0.265375000000     0.075950000000     0.311650000000     0.116352   
H56      H      0.265375000000     0.075950000000     0.811650000000     0.116352   
H56      H      0.265375000000     0.575950000000     0.311650000000     0.116352   
H56      H      0.265375000000     0.575950000000     0.811650000000     0.116352   
H56      H      0.515375000000     0.075950000000     0.311650000000     0.116352   
H56      H      0.515375000000     0.075950000000     0.811650000000     0.116352   
H56      H      0.515375000000     0.575950000000     0.311650000000     0.116352   
H56      H      0.515375000000     0.575950000000     0.811650000000     0.116352   
H56      H      0.765375000000     0.075950000000     0.311650000000     0.116352   
H56      H      0.765375000000     0.075950000000     0.811650000000     0.116352   
H56      H      0.765375000000     0.575950000000     0.311650000000     0.116352   
H56      H      0.765375000000     0.575950000000     0.811650000000     0.116352   
H57      H      0.218125000000     0.063200000000     0.298450000000     0.133699   
H57      H      0.218125000000     0.063200000000     0.798450000000     0.133699   
H57      H      0.218125000000     0.563200000000     0.298450000000     0.133699   
H57      H      0.218125000000     0.563200000000     0.798450000000     0.133699   
H57      H      0.468125000000     0.063200000000     0.298450000000     0.133699   
H57      H      0.468125000000     0.063200000000     0.798450000000     0.133699   
H57      H      0.468125000000     0.563200000000     0.298450000000     0.133699   
H57      H      0.468125000000     0.563200000000     0.798450000000     0.133699   
H57      H      0.718125000000     0.063200000000     0.298450000000     0.133699   
H57      H      0.718125000000     0.063200000000     0.798450000000     0.133699   
H57      H      0.718125000000     0.563200000000     0.298450000000     0.133699   
H57      H      0.718125000000     0.563200000000     0.798450000000     0.133699   
H57      H      0.968125000000     0.063200000000     0.298450000000     0.133699   
H57      H      0.968125000000     0.063200000000     0.798450000000     0.133699   
H57      H      0.968125000000     0.563200000000     0.298450000000     0.133699   
H57      H      0.968125000000     0.563200000000     0.798450000000     0.133699   
H58      H      0.131725000000     0.167650000000     0.467750000000     0.149485   
H58      H      0.131725000000     0.167650000000     0.967750000000     0.149485   
H58      H      0.131725000000     0.667650000000     0.467750000000     0.149485   
H58      H      0.131725000000     0.667650000000     0.967750000000     0.149485   
H58      H      0.381725000000     0.167650000000     0.467750000000     0.149485   
H58      H      0.381725000000     0.167650000000     0.967750000000     0.149485   
H58      H      0.381725000000     0.667650000000     0.467750000000     0.149485   
H58      H      0.381725000000     0.667650000000     0.967750000000     0.149485   
H58      H      0.631725000000     0.167650000000     0.467750000000     0.149485   
H58      H      0.631725000000     0.167650000000     0.967750000000     0.149485   
H58      H      0.631725000000     0.667650000000     0.467750000000     0.149485   
H58      H      0.631725000000     0.667650000000     0.967750000000     0.149485   
H58      H      0.881725000000     0.167650000000     0.467750000000     0.149485   
H58      H      0.881725000000     0.167650000000     0.967750000000     0.149485   
H58      H      0.881725000000     0.667650000000     0.467750000000     0.149485   
H58      H      0.881725000000     0.667650000000     0.967750000000     0.149485   
H59      H      0.132375000000     0.185750000000     0.430700000000     0.134826   
H59      H      0.132375000000     0.185750000000     0.930700000000     0.134826   
H59      H      0.132375000000     0.685750000000     0.430700000000     0.134826   
H59      H      0.132375000000     0.685750000000     0.930700000000     0.134826   
H59      H      0.382375000000     0.185750000000     0.430700000000     0.134826   
H59      H      0.382375000000     0.185750000000     0.930700000000     0.134826   
H59      H      0.382375000000     0.685750000000     0.430700000000     0.134826   
H59      H      0.382375000000     0.685750000000     0.930700000000     0.134826   
H59      H      0.632375000000     0.185750000000     0.430700000000     0.134826   
H59      H      0.632375000000     0.185750000000     0.930700000000     0.134826   
H59      H      0.632375000000     0.685750000000     0.430700000000     0.134826   
H59      H      0.632375000000     0.685750000000     0.930700000000     0.134826   
H59      H      0.882375000000     0.185750000000     0.430700000000     0.134826   
H59      H      0.882375000000     0.185750000000     0.930700000000     0.134826   
H59      H      0.882375000000     0.685750000000     0.430700000000     0.134826   
H59      H      0.882375000000     0.685750000000     0.930700000000     0.134826   
H60      H      0.097800000000     0.321150000000     0.470150000000     0.11083    
H60      H      0.097800000000     0.321150000000     0.970150000000     0.11083    
H60      H      0.097800000000     0.821150000000     0.470150000000     0.11083    
H60      H      0.097800000000     0.821150000000     0.970150000000     0.11083    
H60      H      0.347800000000     0.321150000000     0.470150000000     0.11083    
H60      H      0.347800000000     0.321150000000     0.970150000000     0.11083    
H60      H      0.347800000000     0.821150000000     0.470150000000     0.11083    
H60      H      0.347800000000     0.821150000000     0.970150000000     0.11083    
H60      H      0.597800000000     0.321150000000     0.470150000000     0.11083    
H60      H      0.597800000000     0.321150000000     0.970150000000     0.11083    
H60      H      0.597800000000     0.821150000000     0.470150000000     0.11083    
H60      H      0.597800000000     0.821150000000     0.970150000000     0.11083    
H60      H      0.847800000000     0.321150000000     0.470150000000     0.11083    
H60      H      0.847800000000     0.321150000000     0.970150000000     0.11083    
H60      H      0.847800000000     0.821150000000     0.470150000000     0.11083    
H60      H      0.847800000000     0.821150000000     0.970150000000     0.11083    
H61      H      0.217050000000     0.495700000000     0.025000000000     0.11535    
H61      H      0.217050000000     0.495700000000     0.525000000000     0.11535    
H61      H      0.217050000000     0.995700000000     0.025000000000     0.11535    
H61      H      0.217050000000     0.995700000000     0.525000000000     0.11535    
H61      H      0.467050000000     0.495700000000     0.025000000000     0.11535    
H61      H      0.467050000000     0.495700000000     0.525000000000     0.11535    
H61      H      0.467050000000     0.995700000000     0.025000000000     0.11535    
H61      H      0.467050000000     0.995700000000     0.525000000000     0.11535    
H61      H      0.717050000000     0.495700000000     0.025000000000     0.11535    
H61      H      0.717050000000     0.495700000000     0.525000000000     0.11535    
H61      H      0.717050000000     0.995700000000     0.025000000000     0.11535    
H61      H      0.717050000000     0.995700000000     0.525000000000     0.11535    
H61      H      0.967050000000     0.495700000000     0.025000000000     0.11535    
H61      H      0.967050000000     0.495700000000     0.525000000000     0.11535    
H61      H      0.967050000000     0.995700000000     0.025000000000     0.11535    
H61      H      0.967050000000     0.995700000000     0.525000000000     0.11535    
H62      H      0.211900000000     0.197950000000     0.007700000000     0.11235    
H62      H      0.211900000000     0.197950000000     0.507700000000     0.11235    
H62      H      0.211900000000     0.697950000000     0.007700000000     0.11235    
H62      H      0.211900000000     0.697950000000     0.507700000000     0.11235    
H62      H      0.461900000000     0.197950000000     0.007700000000     0.11235    
H62      H      0.461900000000     0.197950000000     0.507700000000     0.11235    
H62      H      0.461900000000     0.697950000000     0.007700000000     0.11235    
H62      H      0.461900000000     0.697950000000     0.507700000000     0.11235    
H62      H      0.711900000000     0.197950000000     0.007700000000     0.11235    
H62      H      0.711900000000     0.197950000000     0.507700000000     0.11235    
H62      H      0.711900000000     0.697950000000     0.007700000000     0.11235    
H62      H      0.711900000000     0.697950000000     0.507700000000     0.11235    
H62      H      0.961900000000     0.197950000000     0.007700000000     0.11235    
H62      H      0.961900000000     0.197950000000     0.507700000000     0.11235    
H62      H      0.961900000000     0.697950000000     0.007700000000     0.11235    
H62      H      0.961900000000     0.697950000000     0.507700000000     0.11235    
H63      H      0.028225000000     0.017800000000     0.360850000000     0.097495   
H63      H      0.028225000000     0.017800000000     0.860850000000     0.097495   
H63      H      0.028225000000     0.517800000000     0.360850000000     0.097495   
H63      H      0.028225000000     0.517800000000     0.860850000000     0.097495   
H63      H      0.278225000000     0.017800000000     0.360850000000     0.097495   
H63      H      0.278225000000     0.017800000000     0.860850000000     0.097495   
H63      H      0.278225000000     0.517800000000     0.360850000000     0.097495   
H63      H      0.278225000000     0.517800000000     0.860850000000     0.097495   
H63      H      0.528225000000     0.017800000000     0.360850000000     0.097495   
H63      H      0.528225000000     0.017800000000     0.860850000000     0.097495   
H63      H      0.528225000000     0.517800000000     0.360850000000     0.097495   
H63      H      0.528225000000     0.517800000000     0.860850000000     0.097495   
H63      H      0.778225000000     0.017800000000     0.360850000000     0.097495   
H63      H      0.778225000000     0.017800000000     0.860850000000     0.097495   
H63      H      0.778225000000     0.517800000000     0.360850000000     0.097495   
H63      H      0.778225000000     0.517800000000     0.860850000000     0.097495   
H64      H      0.108650000000     0.044350000000     0.430650000000     0.12402    
H64      H      0.108650000000     0.044350000000     0.930650000000     0.12402    
H64      H      0.108650000000     0.544350000000     0.430650000000     0.12402    
H64      H      0.108650000000     0.544350000000     0.930650000000     0.12402    
H64      H      0.358650000000     0.044350000000     0.430650000000     0.12402    
H64      H      0.358650000000     0.044350000000     0.930650000000     0.12402    
H64      H      0.358650000000     0.544350000000     0.430650000000     0.12402    
H64      H      0.358650000000     0.544350000000     0.930650000000     0.12402    
H64      H      0.608650000000     0.044350000000     0.430650000000     0.12402    
H64      H      0.608650000000     0.044350000000     0.930650000000     0.12402    
H64      H      0.608650000000     0.544350000000     0.430650000000     0.12402    
H64      H      0.608650000000     0.544350000000     0.930650000000     0.12402    
H64      H      0.858650000000     0.044350000000     0.430650000000     0.12402    
H64      H      0.858650000000     0.044350000000     0.930650000000     0.12402    
H64      H      0.858650000000     0.544350000000     0.430650000000     0.12402    
H64      H      0.858650000000     0.544350000000     0.930650000000     0.12402    
H65      H      0.060375000000     0.301750000000     0.436800000000     0.109911   
H65      H      0.060375000000     0.301750000000     0.936800000000     0.109911   
H65      H      0.060375000000     0.801750000000     0.436800000000     0.109911   
H65      H      0.060375000000     0.801750000000     0.936800000000     0.109911   
H65      H      0.310375000000     0.301750000000     0.436800000000     0.109911   
H65      H      0.310375000000     0.301750000000     0.936800000000     0.109911   
H65      H      0.310375000000     0.801750000000     0.436800000000     0.109911   
H65      H      0.310375000000     0.801750000000     0.936800000000     0.109911   
H65      H      0.560375000000     0.301750000000     0.436800000000     0.109911   
H65      H      0.560375000000     0.301750000000     0.936800000000     0.109911   
H65      H      0.560375000000     0.801750000000     0.436800000000     0.109911   
H65      H      0.560375000000     0.801750000000     0.936800000000     0.109911   
H65      H      0.810375000000     0.301750000000     0.436800000000     0.109911   
H65      H      0.810375000000     0.301750000000     0.936800000000     0.109911   
H65      H      0.810375000000     0.801750000000     0.436800000000     0.109911   
H65      H      0.810375000000     0.801750000000     0.936800000000     0.109911   
H66      H      0.068250000000     0.049450000000     0.024600000000     0.11172    
H66      H      0.068250000000     0.049450000000     0.524600000000     0.11172    
H66      H      0.068250000000     0.549450000000     0.024600000000     0.11172    
H66      H      0.068250000000     0.549450000000     0.524600000000     0.11172    
H66      H      0.318250000000     0.049450000000     0.024600000000     0.11172    
H66      H      0.318250000000     0.049450000000     0.524600000000     0.11172    
H66      H      0.318250000000     0.549450000000     0.024600000000     0.11172    
H66      H      0.318250000000     0.549450000000     0.524600000000     0.11172    
H66      H      0.568250000000     0.049450000000     0.024600000000     0.11172    
H66      H      0.568250000000     0.049450000000     0.524600000000     0.11172    
H66      H      0.568250000000     0.549450000000     0.024600000000     0.11172    
H66      H      0.568250000000     0.549450000000     0.524600000000     0.11172    
H66      H      0.818250000000     0.049450000000     0.024600000000     0.11172    
H66      H      0.818250000000     0.049450000000     0.524600000000     0.11172    
H66      H      0.818250000000     0.549450000000     0.024600000000     0.11172    
H66      H      0.818250000000     0.549450000000     0.524600000000     0.11172    
H67      H      0.149575000000     0.308350000000     0.446600000000     0.138135   
H67      H      0.149575000000     0.308350000000     0.946600000000     0.138135   
H67      H      0.149575000000     0.808350000000     0.446600000000     0.138135   
H67      H      0.149575000000     0.808350000000     0.946600000000     0.138135   
H67      H      0.399575000000     0.308350000000     0.446600000000     0.138135   
H67      H      0.399575000000     0.308350000000     0.946600000000     0.138135   
H67      H      0.399575000000     0.808350000000     0.446600000000     0.138135   
H67      H      0.399575000000     0.808350000000     0.946600000000     0.138135   
H67      H      0.649575000000     0.308350000000     0.446600000000     0.138135   
H67      H      0.649575000000     0.308350000000     0.946600000000     0.138135   
H67      H      0.649575000000     0.808350000000     0.446600000000     0.138135   
H67      H      0.649575000000     0.808350000000     0.946600000000     0.138135   
H67      H      0.899575000000     0.308350000000     0.446600000000     0.138135   
H67      H      0.899575000000     0.308350000000     0.946600000000     0.138135   
H67      H      0.899575000000     0.808350000000     0.446600000000     0.138135   
H67      H      0.899575000000     0.808350000000     0.946600000000     0.138135   
H68      H      0.120975000000     0.292450000000     0.406800000000    -0.051818   
H68      H      0.120975000000     0.292450000000     0.906800000000    -0.051818   
H68      H      0.120975000000     0.792450000000     0.406800000000    -0.051818   
H68      H      0.120975000000     0.792450000000     0.906800000000    -0.051818   
H68      H      0.370975000000     0.292450000000     0.406800000000    -0.051818   
H68      H      0.370975000000     0.292450000000     0.906800000000    -0.051818   
H68      H      0.370975000000     0.792450000000     0.406800000000    -0.051818   
H68      H      0.370975000000     0.792450000000     0.906800000000    -0.051818   
H68      H      0.620975000000     0.292450000000     0.406800000000    -0.051818   
H68      H      0.620975000000     0.292450000000     0.906800000000    -0.051818   
H68      H      0.620975000000     0.792450000000     0.406800000000    -0.051818   
H68      H      0.620975000000     0.792450000000     0.906800000000    -0.051818   
H68      H      0.870975000000     0.292450000000     0.406800000000    -0.051818   
H68      H      0.870975000000     0.292450000000     0.906800000000    -0.051818   
H68      H      0.870975000000     0.792450000000     0.406800000000    -0.051818   
H68      H      0.870975000000     0.792450000000     0.906800000000    -0.051818   
H69      H      0.145625000000     0.235400000000     0.407300000000    -0.060476   
H69      H      0.145625000000     0.235400000000     0.907300000000    -0.060476   
H69      H      0.145625000000     0.735400000000     0.407300000000    -0.060476   
H69      H      0.145625000000     0.735400000000     0.907300000000    -0.060476   
H69      H      0.395625000000     0.235400000000     0.407300000000    -0.060476   
H69      H      0.395625000000     0.235400000000     0.907300000000    -0.060476   
H69      H      0.395625000000     0.735400000000     0.407300000000    -0.060476   
H69      H      0.395625000000     0.735400000000     0.907300000000    -0.060476   
H69      H      0.645625000000     0.235400000000     0.407300000000    -0.060476   
H69      H      0.645625000000     0.235400000000     0.907300000000    -0.060476   
H69      H      0.645625000000     0.735400000000     0.407300000000    -0.060476   
H69      H      0.645625000000     0.735400000000     0.907300000000    -0.060476   
H69      H      0.895625000000     0.235400000000     0.407300000000    -0.060476   
H69      H      0.895625000000     0.235400000000     0.907300000000    -0.060476   
H69      H      0.895625000000     0.735400000000     0.407300000000    -0.060476   
H69      H      0.895625000000     0.735400000000     0.907300000000    -0.060476   
H70      H      0.179075000000     0.271850000000     0.407550000000    -0.054529   
H70      H      0.179075000000     0.271850000000     0.907550000000    -0.054529   
H70      H      0.179075000000     0.771850000000     0.407550000000    -0.054529   
H70      H      0.179075000000     0.771850000000     0.907550000000    -0.054529   
H70      H      0.429075000000     0.271850000000     0.407550000000    -0.054529   
H70      H      0.429075000000     0.271850000000     0.907550000000    -0.054529   
H70      H      0.429075000000     0.771850000000     0.407550000000    -0.054529   
H70      H      0.429075000000     0.771850000000     0.907550000000    -0.054529   
H70      H      0.679075000000     0.271850000000     0.407550000000    -0.054529   
H70      H      0.679075000000     0.271850000000     0.907550000000    -0.054529   
H70      H      0.679075000000     0.771850000000     0.407550000000    -0.054529   
H70      H      0.679075000000     0.771850000000     0.907550000000    -0.054529   
H70      H      0.929075000000     0.271850000000     0.407550000000    -0.054529   
H70      H      0.929075000000     0.271850000000     0.907550000000    -0.054529   
H70      H      0.929075000000     0.771850000000     0.407550000000    -0.054529   
H70      H      0.929075000000     0.771850000000     0.907550000000    -0.054529   
H71      H      0.209525000000     0.236800000000     0.446450000000    -0.030163   
H71      H      0.209525000000     0.236800000000     0.946450000000    -0.030163   
H71      H      0.209525000000     0.736800000000     0.446450000000    -0.030163   
H71      H      0.209525000000     0.736800000000     0.946450000000    -0.030163   
H71      H      0.459525000000     0.236800000000     0.446450000000    -0.030163   
H71      H      0.459525000000     0.236800000000     0.946450000000    -0.030163   
H71      H      0.459525000000     0.736800000000     0.446450000000    -0.030163   
H71      H      0.459525000000     0.736800000000     0.946450000000    -0.030163   
H71      H      0.709525000000     0.236800000000     0.446450000000    -0.030163   
H71      H      0.709525000000     0.236800000000     0.946450000000    -0.030163   
H71      H      0.709525000000     0.736800000000     0.446450000000    -0.030163   
H71      H      0.709525000000     0.736800000000     0.946450000000    -0.030163   
H71      H      0.959525000000     0.236800000000     0.446450000000    -0.030163   
H71      H      0.959525000000     0.236800000000     0.946450000000    -0.030163   
H71      H      0.959525000000     0.736800000000     0.446450000000    -0.030163   
H71      H      0.959525000000     0.736800000000     0.946450000000    -0.030163   
H72      H      0.130075000000     0.078200000000     0.463150000000    -0.060476   
H72      H      0.130075000000     0.078200000000     0.963150000000    -0.060476   
H72      H      0.130075000000     0.578200000000     0.463150000000    -0.060476   
H72      H      0.130075000000     0.578200000000     0.963150000000    -0.060476   
H72      H      0.380075000000     0.078200000000     0.463150000000    -0.060476   
H72      H      0.380075000000     0.078200000000     0.963150000000    -0.060476   
H72      H      0.380075000000     0.578200000000     0.463150000000    -0.060476   
H72      H      0.380075000000     0.578200000000     0.963150000000    -0.060476   
H72      H      0.630075000000     0.078200000000     0.463150000000    -0.060476   
H72      H      0.630075000000     0.078200000000     0.963150000000    -0.060476   
H72      H      0.630075000000     0.578200000000     0.463150000000    -0.060476   
H72      H      0.630075000000     0.578200000000     0.963150000000    -0.060476   
H72      H      0.880075000000     0.078200000000     0.463150000000    -0.060476   
H72      H      0.880075000000     0.078200000000     0.963150000000    -0.060476   
H72      H      0.880075000000     0.578200000000     0.463150000000    -0.060476   
H72      H      0.880075000000     0.578200000000     0.963150000000    -0.060476   
H73      H      0.032950000000     0.004300000000     0.475000000000    -0.032197   
H73      H      0.032950000000     0.004300000000     0.975000000000    -0.032197   
H73      H      0.032950000000     0.504300000000     0.475000000000    -0.032197   
H73      H      0.032950000000     0.504300000000     0.975000000000    -0.032197   
H73      H      0.282950000000     0.004300000000     0.475000000000    -0.032197   
H73      H      0.282950000000     0.004300000000     0.975000000000    -0.032197   
H73      H      0.282950000000     0.504300000000     0.475000000000    -0.032197   
H73      H      0.282950000000     0.504300000000     0.975000000000    -0.032197   
H73      H      0.532950000000     0.004300000000     0.475000000000    -0.032197   
H73      H      0.532950000000     0.004300000000     0.975000000000    -0.032197   
H73      H      0.532950000000     0.504300000000     0.475000000000    -0.032197   
H73      H      0.532950000000     0.504300000000     0.975000000000    -0.032197   
H73      H      0.782950000000     0.004300000000     0.475000000000    -0.032197   
H73      H      0.782950000000     0.004300000000     0.975000000000    -0.032197   
H73      H      0.782950000000     0.504300000000     0.475000000000    -0.032197   
H73      H      0.782950000000     0.504300000000     0.975000000000    -0.032197   
H74      H      0.032150000000     0.025200000000     0.439250000000    -0.030163   
H74      H      0.032150000000     0.025200000000     0.939250000000    -0.030163   
H74      H      0.032150000000     0.525200000000     0.439250000000    -0.030163   
H74      H      0.032150000000     0.525200000000     0.939250000000    -0.030163   
H74      H      0.282150000000     0.025200000000     0.439250000000    -0.030163   
H74      H      0.282150000000     0.025200000000     0.939250000000    -0.030163   
H74      H      0.282150000000     0.525200000000     0.439250000000    -0.030163   
H74      H      0.282150000000     0.525200000000     0.939250000000    -0.030163   
H74      H      0.532150000000     0.025200000000     0.439250000000    -0.030163   
H74      H      0.532150000000     0.025200000000     0.939250000000    -0.030163   
H74      H      0.532150000000     0.525200000000     0.439250000000    -0.030163   
H74      H      0.532150000000     0.525200000000     0.939250000000    -0.030163   
H74      H      0.782150000000     0.025200000000     0.439250000000    -0.030163   
H74      H      0.782150000000     0.025200000000     0.939250000000    -0.030163   
H74      H      0.782150000000     0.525200000000     0.439250000000    -0.030163   
H74      H      0.782150000000     0.525200000000     0.939250000000    -0.030163   
H75      H      0.191100000000     0.090400000000     0.014400000000    -0.061876   
H75      H      0.191100000000     0.090400000000     0.514400000000    -0.061876   
H75      H      0.191100000000     0.590400000000     0.014400000000    -0.061876   
H75      H      0.191100000000     0.590400000000     0.514400000000    -0.061876   
H75      H      0.441100000000     0.090400000000     0.014400000000    -0.061876   
H75      H      0.441100000000     0.090400000000     0.514400000000    -0.061876   
H75      H      0.441100000000     0.590400000000     0.014400000000    -0.061876   
H75      H      0.441100000000     0.590400000000     0.514400000000    -0.061876   
H75      H      0.691100000000     0.090400000000     0.014400000000    -0.061876   
H75      H      0.691100000000     0.090400000000     0.514400000000    -0.061876   
H75      H      0.691100000000     0.590400000000     0.014400000000    -0.061876   
H75      H      0.691100000000     0.590400000000     0.514400000000    -0.061876   
H75      H      0.941100000000     0.090400000000     0.014400000000    -0.061876   
H75      H      0.941100000000     0.090400000000     0.514400000000    -0.061876   
H75      H      0.941100000000     0.590400000000     0.014400000000    -0.061876   
H75      H      0.941100000000     0.590400000000     0.514400000000    -0.061876   
H76      H      0.224575000000     0.068500000000     0.030900000000    -0.032198   
H76      H      0.224575000000     0.068500000000     0.530900000000    -0.032198   
H76      H      0.224575000000     0.568500000000     0.030900000000    -0.032198   
H76      H      0.224575000000     0.568500000000     0.530900000000    -0.032198   
H76      H      0.474575000000     0.068500000000     0.030900000000    -0.032198   
H76      H      0.474575000000     0.068500000000     0.530900000000    -0.032198   
H76      H      0.474575000000     0.568500000000     0.030900000000    -0.032198   
H76      H      0.474575000000     0.568500000000     0.530900000000    -0.032198   
H76      H      0.724575000000     0.068500000000     0.030900000000    -0.032198   
H76      H      0.724575000000     0.068500000000     0.530900000000    -0.032198   
H76      H      0.724575000000     0.568500000000     0.030900000000    -0.032198   
H76      H      0.724575000000     0.568500000000     0.530900000000    -0.032198   
H76      H      0.974575000000     0.068500000000     0.030900000000    -0.032198   
H76      H      0.974575000000     0.068500000000     0.530900000000    -0.032198   
H76      H      0.974575000000     0.568500000000     0.030900000000    -0.032198   
H76      H      0.974575000000     0.568500000000     0.530900000000    -0.032198   
H77      H      0.217350000000     0.040050000000     0.078650000000    -0.051818   
H77      H      0.217350000000     0.040050000000     0.578650000000    -0.051818   
H77      H      0.217350000000     0.540050000000     0.078650000000    -0.051818   
H77      H      0.217350000000     0.540050000000     0.578650000000    -0.051818   
H77      H      0.467350000000     0.040050000000     0.078650000000    -0.051818   
H77      H      0.467350000000     0.040050000000     0.578650000000    -0.051818   
H77      H      0.467350000000     0.540050000000     0.078650000000    -0.051818   
H77      H      0.467350000000     0.540050000000     0.578650000000    -0.051818   
H77      H      0.717350000000     0.040050000000     0.078650000000    -0.051818   
H77      H      0.717350000000     0.040050000000     0.578650000000    -0.051818   
H77      H      0.717350000000     0.540050000000     0.078650000000    -0.051818   
H77      H      0.717350000000     0.540050000000     0.578650000000    -0.051818   
H77      H      0.967350000000     0.040050000000     0.078650000000    -0.051818   
H77      H      0.967350000000     0.040050000000     0.578650000000    -0.051818   
H77      H      0.967350000000     0.540050000000     0.078650000000    -0.051818   
H77      H      0.967350000000     0.540050000000     0.578650000000    -0.051818   
H78      H      0.176000000000     0.014650000000     0.081900000000    -0.061876   
H78      H      0.176000000000     0.014650000000     0.581900000000    -0.061876   
H78      H      0.176000000000     0.514650000000     0.081900000000    -0.061876   
H78      H      0.176000000000     0.514650000000     0.581900000000    -0.061876   
H78      H      0.426000000000     0.014650000000     0.081900000000    -0.061876   
H78      H      0.426000000000     0.014650000000     0.581900000000    -0.061876   
H78      H      0.426000000000     0.514650000000     0.081900000000    -0.061876   
H78      H      0.426000000000     0.514650000000     0.581900000000    -0.061876   
H78      H      0.676000000000     0.014650000000     0.081900000000    -0.061876   
H78      H      0.676000000000     0.014650000000     0.581900000000    -0.061876   
H78      H      0.676000000000     0.514650000000     0.081900000000    -0.061876   
H78      H      0.676000000000     0.514650000000     0.581900000000    -0.061876   
H78      H      0.926000000000     0.014650000000     0.081900000000    -0.061876   
H78      H      0.926000000000     0.014650000000     0.581900000000    -0.061876   
H78      H      0.926000000000     0.514650000000     0.081900000000    -0.061876   
H78      H      0.926000000000     0.514650000000     0.581900000000    -0.061876   
H79      H      0.135900000000     0.057050000000     0.074100000000    -0.05453    
H79      H      0.135900000000     0.057050000000     0.574100000000    -0.05453    
H79      H      0.135900000000     0.557050000000     0.074100000000    -0.05453    
H79      H      0.135900000000     0.557050000000     0.574100000000    -0.05453    
H79      H      0.385900000000     0.057050000000     0.074100000000    -0.05453    
H79      H      0.385900000000     0.057050000000     0.574100000000    -0.05453    
H79      H      0.385900000000     0.557050000000     0.074100000000    -0.05453    
H79      H      0.385900000000     0.557050000000     0.574100000000    -0.05453    
H79      H      0.635900000000     0.057050000000     0.074100000000    -0.05453    
H79      H      0.635900000000     0.057050000000     0.574100000000    -0.05453    
H79      H      0.635900000000     0.557050000000     0.074100000000    -0.05453    
H79      H      0.635900000000     0.557050000000     0.574100000000    -0.05453    
H79      H      0.885900000000     0.057050000000     0.074100000000    -0.05453    
H79      H      0.885900000000     0.057050000000     0.574100000000    -0.05453    
H79      H      0.885900000000     0.557050000000     0.074100000000    -0.05453    
H79      H      0.885900000000     0.557050000000     0.574100000000    -0.05453    
H80      H      0.172050000000     0.091300000000     0.074600000000    -0.490245   
H80      H      0.172050000000     0.091300000000     0.574600000000    -0.490245   
H80      H      0.172050000000     0.591300000000     0.074600000000    -0.490245   
H80      H      0.172050000000     0.591300000000     0.574600000000    -0.490245   
H80      H      0.422050000000     0.091300000000     0.074600000000    -0.490245   
H80      H      0.422050000000     0.091300000000     0.574600000000    -0.490245   
H80      H      0.422050000000     0.591300000000     0.074600000000    -0.490245   
H80      H      0.422050000000     0.591300000000     0.574600000000    -0.490245   
H80      H      0.672050000000     0.091300000000     0.074600000000    -0.490245   
H80      H      0.672050000000     0.091300000000     0.574600000000    -0.490245   
H80      H      0.672050000000     0.591300000000     0.074600000000    -0.490245   
H80      H      0.672050000000     0.591300000000     0.574600000000    -0.490245   
H80      H      0.922050000000     0.091300000000     0.074600000000    -0.490245   
H80      H      0.922050000000     0.091300000000     0.574600000000    -0.490245   
H80      H      0.922050000000     0.591300000000     0.074600000000    -0.490245   
H80      H      0.922050000000     0.591300000000     0.574600000000    -0.490245   
H81      H      0.114400000000     0.110300000000     0.050000000000    -0.606851   
H81      H      0.114400000000     0.110300000000     0.550000000000    -0.606851   
H81      H      0.114400000000     0.610300000000     0.050000000000    -0.606851   
H81      H      0.114400000000     0.610300000000     0.550000000000    -0.606851   
H81      H      0.364400000000     0.110300000000     0.050000000000    -0.606851   
H81      H      0.364400000000     0.110300000000     0.550000000000    -0.606851   
H81      H      0.364400000000     0.610300000000     0.050000000000    -0.606851   
H81      H      0.364400000000     0.610300000000     0.550000000000    -0.606851   
H81      H      0.614400000000     0.110300000000     0.050000000000    -0.606851   
H81      H      0.614400000000     0.110300000000     0.550000000000    -0.606851   
H81      H      0.614400000000     0.610300000000     0.050000000000    -0.606851   
H81      H      0.614400000000     0.610300000000     0.550000000000    -0.606851   
H81      H      0.864400000000     0.110300000000     0.050000000000    -0.606851   
H81      H      0.864400000000     0.110300000000     0.550000000000    -0.606851   
H81      H      0.864400000000     0.610300000000     0.050000000000    -0.606851   
H81      H      0.864400000000     0.610300000000     0.550000000000    -0.606851   
H82      H      0.136050000000     0.104350000000     0.017300000000    -0.552772   
H82      H      0.136050000000     0.104350000000     0.517300000000    -0.552772   
H82      H      0.136050000000     0.604350000000     0.017300000000    -0.552772   
H82      H      0.136050000000     0.604350000000     0.517300000000    -0.552772   
H82      H      0.386050000000     0.104350000000     0.017300000000    -0.552772   
H82      H      0.386050000000     0.104350000000     0.517300000000    -0.552772   
H82      H      0.386050000000     0.604350000000     0.017300000000    -0.552772   
H82      H      0.386050000000     0.604350000000     0.517300000000    -0.552772   
H82      H      0.636050000000     0.104350000000     0.017300000000    -0.552772   
H82      H      0.636050000000     0.104350000000     0.517300000000    -0.552772   
H82      H      0.636050000000     0.604350000000     0.017300000000    -0.552772   
H82      H      0.636050000000     0.604350000000     0.517300000000    -0.552772   
H82      H      0.886050000000     0.104350000000     0.017300000000    -0.552772   
H82      H      0.886050000000     0.104350000000     0.517300000000    -0.552772   
H82      H      0.886050000000     0.604350000000     0.017300000000    -0.552772   
H82      H      0.886050000000     0.604350000000     0.517300000000    -0.552772   
H83      H      0.063800000000     0.082050000000     0.499400000000    -0.544944   
H83      H      0.063800000000     0.082050000000     0.999400000000    -0.544944   
H83      H      0.063800000000     0.582050000000     0.499400000000    -0.544944   
H83      H      0.063800000000     0.582050000000     0.999400000000    -0.544944   
H83      H      0.313800000000     0.082050000000     0.499400000000    -0.544944   
H83      H      0.313800000000     0.082050000000     0.999400000000    -0.544944   
H83      H      0.313800000000     0.582050000000     0.499400000000    -0.544944   
H83      H      0.313800000000     0.582050000000     0.999400000000    -0.544944   
H83      H      0.563800000000     0.082050000000     0.499400000000    -0.544944   
H83      H      0.563800000000     0.082050000000     0.999400000000    -0.544944   
H83      H      0.563800000000     0.582050000000     0.499400000000    -0.544944   
H83      H      0.563800000000     0.582050000000     0.999400000000    -0.544944   
H83      H      0.813800000000     0.082050000000     0.499400000000    -0.544944   
H83      H      0.813800000000     0.082050000000     0.999400000000    -0.544944   
H83      H      0.813800000000     0.582050000000     0.499400000000    -0.544944   
H83      H      0.813800000000     0.582050000000     0.999400000000    -0.544944   
H84      H      0.048175000000     0.242400000000     0.411000000000    -0.606899   
H84      H      0.048175000000     0.242400000000     0.911000000000    -0.606899   
H84      H      0.048175000000     0.742400000000     0.411000000000    -0.606899   
H84      H      0.048175000000     0.742400000000     0.911000000000    -0.606899   
H84      H      0.298175000000     0.242400000000     0.411000000000    -0.606899   
H84      H      0.298175000000     0.242400000000     0.911000000000    -0.606899   
H84      H      0.298175000000     0.742400000000     0.411000000000    -0.606899   
H84      H      0.298175000000     0.742400000000     0.911000000000    -0.606899   
H84      H      0.548175000000     0.242400000000     0.411000000000    -0.606899   
H84      H      0.548175000000     0.242400000000     0.911000000000    -0.606899   
H84      H      0.548175000000     0.742400000000     0.411000000000    -0.606899   
H84      H      0.548175000000     0.742400000000     0.911000000000    -0.606899   
H84      H      0.798175000000     0.242400000000     0.411000000000    -0.606899   
H84      H      0.798175000000     0.242400000000     0.911000000000    -0.606899   
H84      H      0.798175000000     0.742400000000     0.411000000000    -0.606899   
H84      H      0.798175000000     0.742400000000     0.911000000000    -0.606899   
N1       N      0.168125000000     0.220975000000     0.476900000000    -0.570114   
N1       N      0.168125000000     0.220975000000     0.976900000000    -0.570114   
N1       N      0.168125000000     0.720975000000     0.476900000000    -0.570114   
N1       N      0.168125000000     0.720975000000     0.976900000000    -0.570114   
N1       N      0.418125000000     0.220975000000     0.476900000000    -0.570114   
N1       N      0.418125000000     0.220975000000     0.976900000000    -0.570114   
N1       N      0.418125000000     0.720975000000     0.476900000000    -0.570114   
N1       N      0.418125000000     0.720975000000     0.976900000000    -0.570114   
N1       N      0.668125000000     0.220975000000     0.476900000000    -0.570114   
N1       N      0.668125000000     0.220975000000     0.976900000000    -0.570114   
N1       N      0.668125000000     0.720975000000     0.476900000000    -0.570114   
N1       N      0.668125000000     0.720975000000     0.976900000000    -0.570114   
N1       N      0.918125000000     0.220975000000     0.476900000000    -0.570114   
N1       N      0.918125000000     0.220975000000     0.976900000000    -0.570114   
N1       N      0.918125000000     0.720975000000     0.476900000000    -0.570114   
N1       N      0.918125000000     0.720975000000     0.976900000000    -0.570114   
N2       N      0.169400000000     0.044530000000     0.037330000000    -0.586497   
N2       N      0.169400000000     0.044530000000     0.537330000000    -0.586497   
N2       N      0.169400000000     0.544530000000     0.037330000000    -0.586497   
N2       N      0.169400000000     0.544530000000     0.537330000000    -0.586497   
N2       N      0.419400000000     0.044530000000     0.037330000000    -0.586497   
N2       N      0.419400000000     0.044530000000     0.537330000000    -0.586497   
N2       N      0.419400000000     0.544530000000     0.037330000000    -0.586497   
N2       N      0.419400000000     0.544530000000     0.537330000000    -0.586497   
N2       N      0.669400000000     0.044530000000     0.037330000000    -0.586497   
N2       N      0.669400000000     0.044530000000     0.537330000000    -0.586497   
N2       N      0.669400000000     0.544530000000     0.037330000000    -0.586497   
N2       N      0.669400000000     0.544530000000     0.537330000000    -0.586497   
N2       N      0.919400000000     0.044530000000     0.037330000000    -0.586497   
N2       N      0.919400000000     0.044530000000     0.537330000000    -0.586497   
N2       N      0.919400000000     0.544530000000     0.037330000000    -0.586497   
N2       N      0.919400000000     0.544530000000     0.537330000000    -0.586497   
N3       N      0.060825000000     0.029250000000     0.259650000000    -0.658956   
N3       N      0.060825000000     0.029250000000     0.759650000000    -0.658956   
N3       N      0.060825000000     0.529250000000     0.259650000000    -0.658956   
N3       N      0.060825000000     0.529250000000     0.759650000000    -0.658956   
N3       N      0.310825000000     0.029250000000     0.259650000000    -0.658956   
N3       N      0.310825000000     0.029250000000     0.759650000000    -0.658956   
N3       N      0.310825000000     0.529250000000     0.259650000000    -0.658956   
N3       N      0.310825000000     0.529250000000     0.759650000000    -0.658956   
N3       N      0.560825000000     0.029250000000     0.259650000000    -0.658956   
N3       N      0.560825000000     0.029250000000     0.759650000000    -0.658956   
N3       N      0.560825000000     0.529250000000     0.259650000000    -0.658956   
N3       N      0.560825000000     0.529250000000     0.759650000000    -0.658956   
N3       N      0.810825000000     0.029250000000     0.259650000000    -0.658956   
N3       N      0.810825000000     0.029250000000     0.759650000000    -0.658956   
N3       N      0.810825000000     0.529250000000     0.259650000000    -0.658956   
N3       N      0.810825000000     0.529250000000     0.759650000000    -0.658956   
N4       N      0.087025000000     0.039870000000     0.476600000000    -0.580604   
N4       N      0.087025000000     0.039870000000     0.976600000000    -0.580604   
N4       N      0.087025000000     0.539870000000     0.476600000000    -0.580604   
N4       N      0.087025000000     0.539870000000     0.976600000000    -0.580604   
N4       N      0.337025000000     0.039870000000     0.476600000000    -0.580604   
N4       N      0.337025000000     0.039870000000     0.976600000000    -0.580604   
N4       N      0.337025000000     0.539870000000     0.476600000000    -0.580604   
N4       N      0.337025000000     0.539870000000     0.976600000000    -0.580604   
N4       N      0.587025000000     0.039870000000     0.476600000000    -0.580604   
N4       N      0.587025000000     0.039870000000     0.976600000000    -0.580604   
N4       N      0.587025000000     0.539870000000     0.476600000000    -0.580604   
N4       N      0.587025000000     0.539870000000     0.976600000000    -0.580604   
N4       N      0.837025000000     0.039870000000     0.476600000000    -0.580604   
N4       N      0.837025000000     0.039870000000     0.976600000000    -0.580604   
N4       N      0.837025000000     0.539870000000     0.476600000000    -0.580604   
N4       N      0.837025000000     0.539870000000     0.976600000000    -0.580604   
N5       N      0.080600000000     0.455470000000     0.462670000000    -0.557967   
N5       N      0.080600000000     0.455470000000     0.962670000000    -0.557967   
N5       N      0.080600000000     0.955470000000     0.462670000000    -0.557967   
N5       N      0.080600000000     0.955470000000     0.962670000000    -0.557967   
N5       N      0.330600000000     0.455470000000     0.462670000000    -0.557967   
N5       N      0.330600000000     0.455470000000     0.962670000000    -0.557967   
N5       N      0.330600000000     0.955470000000     0.462670000000    -0.557967   
N5       N      0.330600000000     0.955470000000     0.962670000000    -0.557967   
N5       N      0.580600000000     0.455470000000     0.462670000000    -0.557967   
N5       N      0.580600000000     0.455470000000     0.962670000000    -0.557967   
N5       N      0.580600000000     0.955470000000     0.462670000000    -0.557967   
N5       N      0.580600000000     0.955470000000     0.962670000000    -0.557967   
N5       N      0.830600000000     0.455470000000     0.462670000000    -0.557967   
N5       N      0.830600000000     0.455470000000     0.962670000000    -0.557967   
N5       N      0.830600000000     0.955470000000     0.462670000000    -0.557967   
N5       N      0.830600000000     0.955470000000     0.962670000000    -0.557967   
N6       N      0.244900000000     0.019550000000     0.308850000000    -0.546715   
N6       N      0.244900000000     0.019550000000     0.808850000000    -0.546715   
N6       N      0.244900000000     0.519550000000     0.308850000000    -0.546715   
N6       N      0.244900000000     0.519550000000     0.808850000000    -0.546715   
N6       N      0.494900000000     0.019550000000     0.308850000000    -0.546715   
N6       N      0.494900000000     0.019550000000     0.808850000000    -0.546715   
N6       N      0.494900000000     0.519550000000     0.308850000000    -0.546715   
N6       N      0.494900000000     0.519550000000     0.808850000000    -0.546715   
N6       N      0.744900000000     0.019550000000     0.308850000000    -0.546715   
N6       N      0.744900000000     0.019550000000     0.808850000000    -0.546715   
N6       N      0.744900000000     0.519550000000     0.308850000000    -0.546715   
N6       N      0.744900000000     0.519550000000     0.808850000000    -0.546715   
N6       N      0.994900000000     0.019550000000     0.308850000000    -0.546715   
N6       N      0.994900000000     0.019550000000     0.808850000000    -0.546715   
N6       N      0.994900000000     0.519550000000     0.308850000000    -0.546715   
N6       N      0.994900000000     0.519550000000     0.808850000000    -0.546715   
N7       N      0.162975000000     0.460130000000     0.023400000000    -0.614368   
N7       N      0.162975000000     0.460130000000     0.523400000000    -0.614368   
N7       N      0.162975000000     0.960130000000     0.023400000000    -0.614368   
N7       N      0.162975000000     0.960130000000     0.523400000000    -0.614368   
N7       N      0.412975000000     0.460130000000     0.023400000000    -0.614368   
N7       N      0.412975000000     0.460130000000     0.523400000000    -0.614368   
N7       N      0.412975000000     0.960130000000     0.023400000000    -0.614368   
N7       N      0.412975000000     0.960130000000     0.523400000000    -0.614368   
N7       N      0.662975000000     0.460130000000     0.023400000000    -0.614368   
N7       N      0.662975000000     0.460130000000     0.523400000000    -0.614368   
N7       N      0.662975000000     0.960130000000     0.023400000000    -0.614368   
N7       N      0.662975000000     0.960130000000     0.523400000000    -0.614368   
N7       N      0.912975000000     0.460130000000     0.023400000000    -0.614368   
N7       N      0.912975000000     0.460130000000     0.523400000000    -0.614368   
N7       N      0.912975000000     0.960130000000     0.023400000000    -0.614368   
N7       N      0.912975000000     0.960130000000     0.523400000000    -0.614368   
N8       N      0.100950000000     0.267485000000     0.448150000000    -0.606851   
N8       N      0.100950000000     0.267485000000     0.948150000000    -0.606851   
N8       N      0.100950000000     0.767485000000     0.448150000000    -0.606851   
N8       N      0.100950000000     0.767485000000     0.948150000000    -0.606851   
N8       N      0.350950000000     0.267485000000     0.448150000000    -0.606851   
N8       N      0.350950000000     0.267485000000     0.948150000000    -0.606851   
N8       N      0.350950000000     0.767485000000     0.448150000000    -0.606851   
N8       N      0.350950000000     0.767485000000     0.948150000000    -0.606851   
N8       N      0.600950000000     0.267485000000     0.448150000000    -0.606851   
N8       N      0.600950000000     0.267485000000     0.948150000000    -0.606851   
N8       N      0.600950000000     0.767485000000     0.448150000000    -0.606851   
N8       N      0.600950000000     0.767485000000     0.948150000000    -0.606851   
N8       N      0.850950000000     0.267485000000     0.448150000000    -0.606851   
N8       N      0.850950000000     0.267485000000     0.948150000000    -0.606851   
N8       N      0.850950000000     0.767485000000     0.448150000000    -0.606851   
N8       N      0.850950000000     0.767485000000     0.948150000000    -0.606851   
N9       N      0.005100000000     0.480450000000     0.191150000000    -0.55277    
N9       N      0.005100000000     0.480450000000     0.691150000000    -0.55277    
N9       N      0.005100000000     0.980450000000     0.191150000000    -0.55277    
N9       N      0.005100000000     0.980450000000     0.691150000000    -0.55277    
N9       N      0.255100000000     0.480450000000     0.191150000000    -0.55277    
N9       N      0.255100000000     0.480450000000     0.691150000000    -0.55277    
N9       N      0.255100000000     0.980450000000     0.191150000000    -0.55277    
N9       N      0.255100000000     0.980450000000     0.691150000000    -0.55277    
N9       N      0.505100000000     0.480450000000     0.191150000000    -0.55277    
N9       N      0.505100000000     0.480450000000     0.691150000000    -0.55277    
N9       N      0.505100000000     0.980450000000     0.191150000000    -0.55277    
N9       N      0.505100000000     0.980450000000     0.691150000000    -0.55277    
N9       N      0.755100000000     0.480450000000     0.191150000000    -0.55277    
N9       N      0.755100000000     0.480450000000     0.691150000000    -0.55277    
N9       N      0.755100000000     0.980450000000     0.191150000000    -0.55277    
N9       N      0.755100000000     0.980450000000     0.691150000000    -0.55277    
N10      N      0.081875000000     0.279025000000     0.023100000000    -0.544939   
N10      N      0.081875000000     0.279025000000     0.523100000000    -0.544939   
N10      N      0.081875000000     0.779025000000     0.023100000000    -0.544939   
N10      N      0.081875000000     0.779025000000     0.523100000000    -0.544939   
N10      N      0.331875000000     0.279025000000     0.023100000000    -0.544939   
N10      N      0.331875000000     0.279025000000     0.523100000000    -0.544939   
N10      N      0.331875000000     0.779025000000     0.023100000000    -0.544939   
N10      N      0.331875000000     0.779025000000     0.523100000000    -0.544939   
N10      N      0.581875000000     0.279025000000     0.023100000000    -0.544939   
N10      N      0.581875000000     0.279025000000     0.523100000000    -0.544939   
N10      N      0.581875000000     0.779025000000     0.023100000000    -0.544939   
N10      N      0.581875000000     0.779025000000     0.523100000000    -0.544939   
N10      N      0.831875000000     0.279025000000     0.023100000000    -0.544939   
N10      N      0.831875000000     0.279025000000     0.523100000000    -0.544939   
N10      N      0.831875000000     0.779025000000     0.023100000000    -0.544939   
N10      N      0.831875000000     0.779025000000     0.523100000000    -0.544939   
N11      N      0.149050000000     0.232515000000     0.051850000000    -0.606899   
N11      N      0.149050000000     0.232515000000     0.551850000000    -0.606899   
N11      N      0.149050000000     0.732515000000     0.051850000000    -0.606899   
N11      N      0.149050000000     0.732515000000     0.551850000000    -0.606899   
N11      N      0.399050000000     0.232515000000     0.051850000000    -0.606899   
N11      N      0.399050000000     0.232515000000     0.551850000000    -0.606899   
N11      N      0.399050000000     0.732515000000     0.051850000000    -0.606899   
N11      N      0.399050000000     0.732515000000     0.551850000000    -0.606899   
N11      N      0.649050000000     0.232515000000     0.051850000000    -0.606899   
N11      N      0.649050000000     0.232515000000     0.551850000000    -0.606899   
N11      N      0.649050000000     0.732515000000     0.051850000000    -0.606899   
N11      N      0.649050000000     0.732515000000     0.551850000000    -0.606899   
N11      N      0.899050000000     0.232515000000     0.051850000000    -0.606899   
N11      N      0.899050000000     0.232515000000     0.551850000000    -0.606899   
N11      N      0.899050000000     0.732515000000     0.051850000000    -0.606899   
N11      N      0.899050000000     0.732515000000     0.551850000000    -0.606899   
N12      N      0.189175000000     0.470750000000     0.240350000000    -0.570115   
N12      N      0.189175000000     0.470750000000     0.740350000000    -0.570115   
N12      N      0.189175000000     0.970750000000     0.240350000000    -0.570115   
N12      N      0.189175000000     0.970750000000     0.740350000000    -0.570115   
N12      N      0.439175000000     0.470750000000     0.240350000000    -0.570115   
N12      N      0.439175000000     0.470750000000     0.740350000000    -0.570115   
N12      N      0.439175000000     0.970750000000     0.240350000000    -0.570115   
N12      N      0.439175000000     0.970750000000     0.740350000000    -0.570115   
N12      N      0.689175000000     0.470750000000     0.240350000000    -0.570115   
N12      N      0.689175000000     0.470750000000     0.740350000000    -0.570115   
N12      N      0.689175000000     0.970750000000     0.240350000000    -0.570115   
N12      N      0.689175000000     0.970750000000     0.740350000000    -0.570115   
N12      N      0.939175000000     0.470750000000     0.240350000000    -0.570115   
N12      N      0.939175000000     0.470750000000     0.740350000000    -0.570115   
N12      N      0.939175000000     0.970750000000     0.240350000000    -0.570115   
N12      N      0.939175000000     0.970750000000     0.740350000000    -0.570115   
O1       O      0.095025000000     0.103695000000     0.404120000000    -0.586497   
O1       O      0.095025000000     0.103695000000     0.904120000000    -0.586497   
O1       O      0.095025000000     0.603695000000     0.404120000000    -0.586497   
O1       O      0.095025000000     0.603695000000     0.904120000000    -0.586497   
O1       O      0.345025000000     0.103695000000     0.404120000000    -0.586497   
O1       O      0.345025000000     0.103695000000     0.904120000000    -0.586497   
O1       O      0.345025000000     0.603695000000     0.404120000000    -0.586497   
O1       O      0.345025000000     0.603695000000     0.904120000000    -0.586497   
O1       O      0.595025000000     0.103695000000     0.404120000000    -0.586497   
O1       O      0.595025000000     0.103695000000     0.904120000000    -0.586497   
O1       O      0.595025000000     0.603695000000     0.404120000000    -0.586497   
O1       O      0.595025000000     0.603695000000     0.904120000000    -0.586497   
O1       O      0.845025000000     0.103695000000     0.404120000000    -0.586497   
O1       O      0.845025000000     0.103695000000     0.904120000000    -0.586497   
O1       O      0.845025000000     0.603695000000     0.404120000000    -0.586497   
O1       O      0.845025000000     0.603695000000     0.904120000000    -0.586497   
O2       O      0.048925000000     0.096215000000     0.438760000000    -0.658956   
O2       O      0.048925000000     0.096215000000     0.938760000000    -0.658956   
O2       O      0.048925000000     0.596215000000     0.438760000000    -0.658956   
O2       O      0.048925000000     0.596215000000     0.938760000000    -0.658956   
O2       O      0.298925000000     0.096215000000     0.438760000000    -0.658956   
O2       O      0.298925000000     0.096215000000     0.938760000000    -0.658956   
O2       O      0.298925000000     0.596215000000     0.438760000000    -0.658956   
O2       O      0.298925000000     0.596215000000     0.938760000000    -0.658956   
O2       O      0.548925000000     0.096215000000     0.438760000000    -0.658956   
O2       O      0.548925000000     0.096215000000     0.938760000000    -0.658956   
O2       O      0.548925000000     0.596215000000     0.438760000000    -0.658956   
O2       O      0.548925000000     0.596215000000     0.938760000000    -0.658956   
O2       O      0.798925000000     0.096215000000     0.438760000000    -0.658956   
O2       O      0.798925000000     0.096215000000     0.938760000000    -0.658956   
O2       O      0.798925000000     0.596215000000     0.438760000000    -0.658956   
O2       O      0.798925000000     0.596215000000     0.938760000000    -0.658956   
O3       O      0.239775000000     0.052935000000     0.233285000000    -0.580604   
O3       O      0.239775000000     0.052935000000     0.733285000000    -0.580604   
O3       O      0.239775000000     0.552935000000     0.233285000000    -0.580604   
O3       O      0.239775000000     0.552935000000     0.733285000000    -0.580604   
O3       O      0.489775000000     0.052935000000     0.233285000000    -0.580604   
O3       O      0.489775000000     0.052935000000     0.733285000000    -0.580604   
O3       O      0.489775000000     0.552935000000     0.233285000000    -0.580604   
O3       O      0.489775000000     0.552935000000     0.733285000000    -0.580604   
O3       O      0.739775000000     0.052935000000     0.233285000000    -0.580604   
O3       O      0.739775000000     0.052935000000     0.733285000000    -0.580604   
O3       O      0.739775000000     0.552935000000     0.233285000000    -0.580604   
O3       O      0.739775000000     0.552935000000     0.733285000000    -0.580604   
O3       O      0.989775000000     0.052935000000     0.233285000000    -0.580604   
O3       O      0.989775000000     0.052935000000     0.733285000000    -0.580604   
O3       O      0.989775000000     0.552935000000     0.233285000000    -0.580604   
O3       O      0.989775000000     0.552935000000     0.733285000000    -0.580604   
O4       O      0.022775000000     0.111500000000     0.229500000000    -0.557967   
O4       O      0.022775000000     0.111500000000     0.729500000000    -0.557967   
O4       O      0.022775000000     0.611500000000     0.229500000000    -0.557967   
O4       O      0.022775000000     0.611500000000     0.729500000000    -0.557967   
O4       O      0.272775000000     0.111500000000     0.229500000000    -0.557967   
O4       O      0.272775000000     0.111500000000     0.729500000000    -0.557967   
O4       O      0.272775000000     0.611500000000     0.229500000000    -0.557967   
O4       O      0.272775000000     0.611500000000     0.729500000000    -0.557967   
O4       O      0.522775000000     0.111500000000     0.229500000000    -0.557967   
O4       O      0.522775000000     0.111500000000     0.729500000000    -0.557967   
O4       O      0.522775000000     0.611500000000     0.229500000000    -0.557967   
O4       O      0.522775000000     0.611500000000     0.729500000000    -0.557967   
O4       O      0.772775000000     0.111500000000     0.229500000000    -0.557967   
O4       O      0.772775000000     0.111500000000     0.729500000000    -0.557967   
O4       O      0.772775000000     0.611500000000     0.229500000000    -0.557967   
O4       O      0.772775000000     0.611500000000     0.729500000000    -0.557967   
O5       O      0.232225000000     0.053520000000     0.380415000000    -0.614369   
O5       O      0.232225000000     0.053520000000     0.880415000000    -0.614369   
O5       O      0.232225000000     0.553520000000     0.380415000000    -0.614369   
O5       O      0.232225000000     0.553520000000     0.880415000000    -0.614369   
O5       O      0.482225000000     0.053520000000     0.380415000000    -0.614369   
O5       O      0.482225000000     0.053520000000     0.880415000000    -0.614369   
O5       O      0.482225000000     0.553520000000     0.380415000000    -0.614369   
O5       O      0.482225000000     0.553520000000     0.880415000000    -0.614369   
O5       O      0.732225000000     0.053520000000     0.380415000000    -0.614369   
O5       O      0.732225000000     0.053520000000     0.880415000000    -0.614369   
O5       O      0.732225000000     0.553520000000     0.380415000000    -0.614369   
O5       O      0.732225000000     0.553520000000     0.880415000000    -0.614369   
O5       O      0.982225000000     0.053520000000     0.380415000000    -0.614369   
O5       O      0.982225000000     0.053520000000     0.880415000000    -0.614369   
O5       O      0.982225000000     0.553520000000     0.380415000000    -0.614369   
O5       O      0.982225000000     0.553520000000     0.880415000000    -0.614369   
O6       O      0.240050000000     0.111025000000     0.362535000000    -0.490245   
O6       O      0.240050000000     0.111025000000     0.862535000000    -0.490245   
O6       O      0.240050000000     0.611025000000     0.362535000000    -0.490245   
O6       O      0.240050000000     0.611025000000     0.862535000000    -0.490245   
O6       O      0.490050000000     0.111025000000     0.362535000000    -0.490245   
O6       O      0.490050000000     0.111025000000     0.862535000000    -0.490245   
O6       O      0.490050000000     0.611025000000     0.362535000000    -0.490245   
O6       O      0.490050000000     0.611025000000     0.862535000000    -0.490245   
O6       O      0.740050000000     0.111025000000     0.362535000000    -0.490245   
O6       O      0.740050000000     0.111025000000     0.862535000000    -0.490245   
O6       O      0.740050000000     0.611025000000     0.362535000000    -0.490245   
O6       O      0.740050000000     0.611025000000     0.862535000000    -0.490245   
O6       O      0.990050000000     0.111025000000     0.362535000000    -0.490245   
O6       O      0.990050000000     0.111025000000     0.862535000000    -0.490245   
O6       O      0.990050000000     0.611025000000     0.362535000000    -0.490245   
O6       O      0.990050000000     0.611025000000     0.862535000000    -0.490245   
O7       O      0.199550000000     0.167470000000     0.422050000000    -0.546715   
O7       O      0.199550000000     0.167470000000     0.922050000000    -0.546715   
O7       O      0.199550000000     0.667470000000     0.422050000000    -0.546715   
O7       O      0.199550000000     0.667470000000     0.922050000000    -0.546715   
O7       O      0.449550000000     0.167470000000     0.422050000000    -0.546715   
O7       O      0.449550000000     0.167470000000     0.922050000000    -0.546715   
O7       O      0.449550000000     0.667470000000     0.422050000000    -0.546715   
O7       O      0.449550000000     0.667470000000     0.922050000000    -0.546715   
O7       O      0.699550000000     0.167470000000     0.422050000000    -0.546715   
O7       O      0.699550000000     0.167470000000     0.922050000000    -0.546715   
O7       O      0.699550000000     0.667470000000     0.422050000000    -0.546715   
O7       O      0.699550000000     0.667470000000     0.922050000000    -0.546715   
O7       O      0.949550000000     0.167470000000     0.422050000000    -0.546715   
O7       O      0.949550000000     0.167470000000     0.922050000000    -0.546715   
O7       O      0.949550000000     0.667470000000     0.422050000000    -0.546715   
O7       O      0.949550000000     0.667470000000     0.922050000000    -0.546715   
O8       O      0.184800000000     0.131070000000     0.463490000000     0.616947   
O8       O      0.184800000000     0.131070000000     0.963490000000     0.616947   
O8       O      0.184800000000     0.631070000000     0.463490000000     0.616947   
O8       O      0.184800000000     0.631070000000     0.963490000000     0.616947   
O8       O      0.434800000000     0.131070000000     0.463490000000     0.616947   
O8       O      0.434800000000     0.131070000000     0.963490000000     0.616947   
O8       O      0.434800000000     0.631070000000     0.463490000000     0.616947   
O8       O      0.434800000000     0.631070000000     0.963490000000     0.616947   
O8       O      0.684800000000     0.131070000000     0.463490000000     0.616947   
O8       O      0.684800000000     0.131070000000     0.963490000000     0.616947   
O8       O      0.684800000000     0.631070000000     0.463490000000     0.616947   
O8       O      0.684800000000     0.631070000000     0.963490000000     0.616947   
O8       O      0.934800000000     0.131070000000     0.463490000000     0.616947   
O8       O      0.934800000000     0.131070000000     0.963490000000     0.616947   
O8       O      0.934800000000     0.631070000000     0.463490000000     0.616947   
O8       O      0.934800000000     0.631070000000     0.963490000000     0.616947   
O9       O      0.076625000000     0.201240000000     0.477520000000     0.620889   
O9       O      0.076625000000     0.201240000000     0.977520000000     0.620889   
O9       O      0.076625000000     0.701240000000     0.477520000000     0.620889   
O9       O      0.076625000000     0.701240000000     0.977520000000     0.620889   
O9       O      0.326625000000     0.201240000000     0.477520000000     0.620889   
O9       O      0.326625000000     0.201240000000     0.977520000000     0.620889   
O9       O      0.326625000000     0.701240000000     0.477520000000     0.620889   
O9       O      0.326625000000     0.701240000000     0.977520000000     0.620889   
O9       O      0.576625000000     0.201240000000     0.477520000000     0.620889   
O9       O      0.576625000000     0.201240000000     0.977520000000     0.620889   
O9       O      0.576625000000     0.701240000000     0.477520000000     0.620889   
O9       O      0.576625000000     0.701240000000     0.977520000000     0.620889   
O9       O      0.826625000000     0.201240000000     0.477520000000     0.620889   
O9       O      0.826625000000     0.201240000000     0.977520000000     0.620889   
O9       O      0.826625000000     0.701240000000     0.477520000000     0.620889   
O9       O      0.826625000000     0.701240000000     0.977520000000     0.620889   
O10      O      0.031450000000     0.173315000000     0.424300000000     0.620252   
O10      O      0.031450000000     0.173315000000     0.924300000000     0.620252   
O10      O      0.031450000000     0.673315000000     0.424300000000     0.620252   
O10      O      0.031450000000     0.673315000000     0.924300000000     0.620252   
O10      O      0.281450000000     0.173315000000     0.424300000000     0.620252   
O10      O      0.281450000000     0.173315000000     0.924300000000     0.620252   
O10      O      0.281450000000     0.673315000000     0.424300000000     0.620252   
O10      O      0.281450000000     0.673315000000     0.924300000000     0.620252   
O10      O      0.531450000000     0.173315000000     0.424300000000     0.620252   
O10      O      0.531450000000     0.173315000000     0.924300000000     0.620252   
O10      O      0.531450000000     0.673315000000     0.424300000000     0.620252   
O10      O      0.531450000000     0.673315000000     0.924300000000     0.620252   
O10      O      0.781450000000     0.173315000000     0.424300000000     0.620252   
O10      O      0.781450000000     0.173315000000     0.924300000000     0.620252   
O10      O      0.781450000000     0.673315000000     0.424300000000     0.620252   
O10      O      0.781450000000     0.673315000000     0.924300000000     0.620252   
O11      O      0.083575000000     0.486045000000     0.035245000000     0.621552   
O11      O      0.083575000000     0.486045000000     0.535245000000     0.621552   
O11      O      0.083575000000     0.986045000000     0.035245000000     0.621552   
O11      O      0.083575000000     0.986045000000     0.535245000000     0.621552   
O11      O      0.333575000000     0.486045000000     0.035245000000     0.621552   
O11      O      0.333575000000     0.486045000000     0.535245000000     0.621552   
O11      O      0.333575000000     0.986045000000     0.035245000000     0.621552   
O11      O      0.333575000000     0.986045000000     0.535245000000     0.621552   
O11      O      0.583575000000     0.486045000000     0.035245000000     0.621552   
O11      O      0.583575000000     0.486045000000     0.535245000000     0.621552   
O11      O      0.583575000000     0.986045000000     0.035245000000     0.621552   
O11      O      0.583575000000     0.986045000000     0.535245000000     0.621552   
O11      O      0.833575000000     0.486045000000     0.035245000000     0.621552   
O11      O      0.833575000000     0.486045000000     0.535245000000     0.621552   
O11      O      0.833575000000     0.986045000000     0.035245000000     0.621552   
O11      O      0.833575000000     0.986045000000     0.535245000000     0.621552   
O12      O      0.032175000000     0.440375000000     0.040760000000     0.637563   
O12      O      0.032175000000     0.440375000000     0.540760000000     0.637563   
O12      O      0.032175000000     0.940375000000     0.040760000000     0.637563   
O12      O      0.032175000000     0.940375000000     0.540760000000     0.637563   
O12      O      0.282175000000     0.440375000000     0.040760000000     0.637563   
O12      O      0.282175000000     0.440375000000     0.540760000000     0.637563   
O12      O      0.282175000000     0.940375000000     0.040760000000     0.637563   
O12      O      0.282175000000     0.940375000000     0.540760000000     0.637563   
O12      O      0.532175000000     0.440375000000     0.040760000000     0.637563   
O12      O      0.532175000000     0.440375000000     0.540760000000     0.637563   
O12      O      0.532175000000     0.940375000000     0.040760000000     0.637563   
O12      O      0.532175000000     0.940375000000     0.540760000000     0.637563   
O12      O      0.782175000000     0.440375000000     0.040760000000     0.637563   
O12      O      0.782175000000     0.440375000000     0.540760000000     0.637563   
O12      O      0.782175000000     0.940375000000     0.040760000000     0.637563   
O12      O      0.782175000000     0.940375000000     0.540760000000     0.637563   
O13      O      0.201075000000     0.403785000000     0.061240000000    -0.300524   
O13      O      0.201075000000     0.403785000000     0.561240000000    -0.300524   
O13      O      0.201075000000     0.903785000000     0.061240000000    -0.300524   
O13      O      0.201075000000     0.903785000000     0.561240000000    -0.300524   
O13      O      0.451075000000     0.403785000000     0.061240000000    -0.300524   
O13      O      0.451075000000     0.403785000000     0.561240000000    -0.300524   
O13      O      0.451075000000     0.903785000000     0.061240000000    -0.300524   
O13      O      0.451075000000     0.903785000000     0.561240000000    -0.300524   
O13      O      0.701075000000     0.403785000000     0.061240000000    -0.300524   
O13      O      0.701075000000     0.403785000000     0.561240000000    -0.300524   
O13      O      0.701075000000     0.903785000000     0.061240000000    -0.300524   
O13      O      0.701075000000     0.903785000000     0.561240000000    -0.300524   
O13      O      0.951075000000     0.403785000000     0.061240000000    -0.300524   
O13      O      0.951075000000     0.403785000000     0.561240000000    -0.300524   
O13      O      0.951075000000     0.903785000000     0.061240000000    -0.300524   
O13      O      0.951075000000     0.903785000000     0.561240000000    -0.300524   
O14      O      0.010225000000     0.447065000000     0.266715000000    -0.14052    
O14      O      0.010225000000     0.447065000000     0.766715000000    -0.14052    
O14      O      0.010225000000     0.947065000000     0.266715000000    -0.14052    
O14      O      0.010225000000     0.947065000000     0.766715000000    -0.14052    
O14      O      0.260225000000     0.447065000000     0.266715000000    -0.14052    
O14      O      0.260225000000     0.447065000000     0.766715000000    -0.14052    
O14      O      0.260225000000     0.947065000000     0.266715000000    -0.14052    
O14      O      0.260225000000     0.947065000000     0.766715000000    -0.14052    
O14      O      0.510225000000     0.447065000000     0.266715000000    -0.14052    
O14      O      0.510225000000     0.447065000000     0.766715000000    -0.14052    
O14      O      0.510225000000     0.947065000000     0.266715000000    -0.14052    
O14      O      0.510225000000     0.947065000000     0.766715000000    -0.14052    
O14      O      0.760225000000     0.447065000000     0.266715000000    -0.14052    
O14      O      0.760225000000     0.447065000000     0.766715000000    -0.14052    
O14      O      0.760225000000     0.947065000000     0.266715000000    -0.14052    
O14      O      0.760225000000     0.947065000000     0.766715000000    -0.14052    
O15      O      0.227225000000     0.388500000000     0.270500000000    -0.105325   
O15      O      0.227225000000     0.388500000000     0.770500000000    -0.105325   
O15      O      0.227225000000     0.888500000000     0.270500000000    -0.105325   
O15      O      0.227225000000     0.888500000000     0.770500000000    -0.105325   
O15      O      0.477225000000     0.388500000000     0.270500000000    -0.105325   
O15      O      0.477225000000     0.388500000000     0.770500000000    -0.105325   
O15      O      0.477225000000     0.888500000000     0.270500000000    -0.105325   
O15      O      0.477225000000     0.888500000000     0.770500000000    -0.105325   
O15      O      0.727225000000     0.388500000000     0.270500000000    -0.105325   
O15      O      0.727225000000     0.388500000000     0.770500000000    -0.105325   
O15      O      0.727225000000     0.888500000000     0.270500000000    -0.105325   
O15      O      0.727225000000     0.888500000000     0.770500000000    -0.105325   
O15      O      0.977225000000     0.388500000000     0.270500000000    -0.105325   
O15      O      0.977225000000     0.388500000000     0.770500000000    -0.105325   
O15      O      0.977225000000     0.888500000000     0.270500000000    -0.105325   
O15      O      0.977225000000     0.888500000000     0.770500000000    -0.105325   
O16      O      0.017775000000     0.446480000000     0.119585000000    -0.21314    
O16      O      0.017775000000     0.446480000000     0.619585000000    -0.21314    
O16      O      0.017775000000     0.946480000000     0.119585000000    -0.21314    
O16      O      0.017775000000     0.946480000000     0.619585000000    -0.21314    
O16      O      0.267775000000     0.446480000000     0.119585000000    -0.21314    
O16      O      0.267775000000     0.446480000000     0.619585000000    -0.21314    
O16      O      0.267775000000     0.946480000000     0.119585000000    -0.21314    
O16      O      0.267775000000     0.946480000000     0.619585000000    -0.21314    
O16      O      0.517775000000     0.446480000000     0.119585000000    -0.21314    
O16      O      0.517775000000     0.446480000000     0.619585000000    -0.21314    
O16      O      0.517775000000     0.946480000000     0.119585000000    -0.21314    
O16      O      0.517775000000     0.946480000000     0.619585000000    -0.21314    
O16      O      0.767775000000     0.446480000000     0.119585000000    -0.21314    
O16      O      0.767775000000     0.446480000000     0.619585000000    -0.21314    
O16      O      0.767775000000     0.946480000000     0.119585000000    -0.21314    
O16      O      0.767775000000     0.946480000000     0.619585000000    -0.21314    
O17      O      0.009950000000     0.388975000000     0.137465000000    -0.116478   
O17      O      0.009950000000     0.388975000000     0.637465000000    -0.116478   
O17      O      0.009950000000     0.888975000000     0.137465000000    -0.116478   
O17      O      0.009950000000     0.888975000000     0.637465000000    -0.116478   
O17      O      0.259950000000     0.388975000000     0.137465000000    -0.116478   
O17      O      0.259950000000     0.388975000000     0.637465000000    -0.116478   
O17      O      0.259950000000     0.888975000000     0.137465000000    -0.116478   
O17      O      0.259950000000     0.888975000000     0.637465000000    -0.116478   
O17      O      0.509950000000     0.388975000000     0.137465000000    -0.116478   
O17      O      0.509950000000     0.388975000000     0.637465000000    -0.116478   
O17      O      0.509950000000     0.888975000000     0.137465000000    -0.116478   
O17      O      0.509950000000     0.888975000000     0.637465000000    -0.116478   
O17      O      0.759950000000     0.388975000000     0.137465000000    -0.116478   
O17      O      0.759950000000     0.388975000000     0.637465000000    -0.116478   
O17      O      0.759950000000     0.888975000000     0.137465000000    -0.116478   
O17      O      0.759950000000     0.888975000000     0.637465000000    -0.116478   
O18      O      0.050450000000     0.332530000000     0.077950000000    -0.292572   
O18      O      0.050450000000     0.332530000000     0.577950000000    -0.292572   
O18      O      0.050450000000     0.832530000000     0.077950000000    -0.292572   
O18      O      0.050450000000     0.832530000000     0.577950000000    -0.292572   
O18      O      0.300450000000     0.332530000000     0.077950000000    -0.292572   
O18      O      0.300450000000     0.332530000000     0.577950000000    -0.292572   
O18      O      0.300450000000     0.832530000000     0.077950000000    -0.292572   
O18      O      0.300450000000     0.832530000000     0.577950000000    -0.292572   
O18      O      0.550450000000     0.332530000000     0.077950000000    -0.292572   
O18      O      0.550450000000     0.332530000000     0.577950000000    -0.292572   
O18      O      0.550450000000     0.832530000000     0.077950000000    -0.292572   
O18      O      0.550450000000     0.832530000000     0.577950000000    -0.292572   
O18      O      0.800450000000     0.332530000000     0.077950000000    -0.292572   
O18      O      0.800450000000     0.332530000000     0.577950000000    -0.292572   
O18      O      0.800450000000     0.832530000000     0.077950000000    -0.292572   
O18      O      0.800450000000     0.832530000000     0.577950000000    -0.292572   
O19      O      0.065200000000     0.368930000000     0.036510000000     0.635261   
O19      O      0.065200000000     0.368930000000     0.536510000000     0.635261   
O19      O      0.065200000000     0.868930000000     0.036510000000     0.635261   
O19      O      0.065200000000     0.868930000000     0.536510000000     0.635261   
O19      O      0.315200000000     0.368930000000     0.036510000000     0.635261   
O19      O      0.315200000000     0.368930000000     0.536510000000     0.635261   
O19      O      0.315200000000     0.868930000000     0.036510000000     0.635261   
O19      O      0.315200000000     0.868930000000     0.536510000000     0.635261   
O19      O      0.565200000000     0.368930000000     0.036510000000     0.635261   
O19      O      0.565200000000     0.368930000000     0.536510000000     0.635261   
O19      O      0.565200000000     0.868930000000     0.036510000000     0.635261   
O19      O      0.565200000000     0.868930000000     0.536510000000     0.635261   
O19      O      0.815200000000     0.368930000000     0.036510000000     0.635261   
O19      O      0.815200000000     0.368930000000     0.536510000000     0.635261   
O19      O      0.815200000000     0.868930000000     0.036510000000     0.635261   
O19      O      0.815200000000     0.868930000000     0.536510000000     0.635261   
O20      O      0.173375000000     0.298760000000     0.022480000000    -0.143786   
O20      O      0.173375000000     0.298760000000     0.522480000000    -0.143786   
O20      O      0.173375000000     0.798760000000     0.022480000000    -0.143786   
O20      O      0.173375000000     0.798760000000     0.522480000000    -0.143786   
O20      O      0.423375000000     0.298760000000     0.022480000000    -0.143786   
O20      O      0.423375000000     0.298760000000     0.522480000000    -0.143786   
O20      O      0.423375000000     0.798760000000     0.022480000000    -0.143786   
O20      O      0.423375000000     0.798760000000     0.522480000000    -0.143786   
O20      O      0.673375000000     0.298760000000     0.022480000000    -0.143786   
O20      O      0.673375000000     0.298760000000     0.522480000000    -0.143786   
O20      O      0.673375000000     0.798760000000     0.022480000000    -0.143786   
O20      O      0.673375000000     0.798760000000     0.522480000000    -0.143786   
O20      O      0.923375000000     0.298760000000     0.022480000000    -0.143786   
O20      O      0.923375000000     0.298760000000     0.522480000000    -0.143786   
O20      O      0.923375000000     0.798760000000     0.022480000000    -0.143786   
O20      O      0.923375000000     0.798760000000     0.522480000000    -0.143786   
O21      O      0.218550000000     0.326685000000     0.075700000000     0.594276   
O21      O      0.218550000000     0.326685000000     0.575700000000     0.594276   
O21      O      0.218550000000     0.826685000000     0.075700000000     0.594276   
O21      O      0.218550000000     0.826685000000     0.575700000000     0.594276   
O21      O      0.468550000000     0.326685000000     0.075700000000     0.594276   
O21      O      0.468550000000     0.326685000000     0.575700000000     0.594276   
O21      O      0.468550000000     0.826685000000     0.075700000000     0.594276   
O21      O      0.468550000000     0.826685000000     0.575700000000     0.594276   
O21      O      0.718550000000     0.326685000000     0.075700000000     0.594276   
O21      O      0.718550000000     0.326685000000     0.575700000000     0.594276   
O21      O      0.718550000000     0.826685000000     0.075700000000     0.594276   
O21      O      0.718550000000     0.826685000000     0.575700000000     0.594276   
O21      O      0.968550000000     0.326685000000     0.075700000000     0.594276   
O21      O      0.968550000000     0.326685000000     0.575700000000     0.594276   
O21      O      0.968550000000     0.826685000000     0.075700000000     0.594276   
O21      O      0.968550000000     0.826685000000     0.575700000000     0.594276   
O22      O      0.217825000000     0.059625000000     0.459240000000    -0.290572   
O22      O      0.217825000000     0.059625000000     0.959240000000    -0.290572   
O22      O      0.217825000000     0.559625000000     0.459240000000    -0.290572   
O22      O      0.217825000000     0.559625000000     0.959240000000    -0.290572   
O22      O      0.467825000000     0.059625000000     0.459240000000    -0.290572   
O22      O      0.467825000000     0.059625000000     0.959240000000    -0.290572   
O22      O      0.467825000000     0.559625000000     0.459240000000    -0.290572   
O22      O      0.467825000000     0.559625000000     0.959240000000    -0.290572   
O22      O      0.717825000000     0.059625000000     0.459240000000    -0.290572   
O22      O      0.717825000000     0.059625000000     0.959240000000    -0.290572   
O22      O      0.717825000000     0.559625000000     0.459240000000    -0.290572   
O22      O      0.717825000000     0.559625000000     0.959240000000    -0.290572   
O22      O      0.967825000000     0.059625000000     0.459240000000    -0.290572   
O22      O      0.967825000000     0.059625000000     0.959240000000    -0.290572   
O22      O      0.967825000000     0.559625000000     0.459240000000    -0.290572   
O22      O      0.967825000000     0.559625000000     0.959240000000    -0.290572   
O23      O      0.154975000000     0.396305000000     0.095880000000    -0.14565    
O23      O      0.154975000000     0.396305000000     0.595880000000    -0.14565    
O23      O      0.154975000000     0.896305000000     0.095880000000    -0.14565    
O23      O      0.154975000000     0.896305000000     0.595880000000    -0.14565    
O23      O      0.404975000000     0.396305000000     0.095880000000    -0.14565    
O23      O      0.404975000000     0.396305000000     0.595880000000    -0.14565    
O23      O      0.404975000000     0.896305000000     0.095880000000    -0.14565    
O23      O      0.404975000000     0.896305000000     0.595880000000    -0.14565    
O23      O      0.654975000000     0.396305000000     0.095880000000    -0.14565    
O23      O      0.654975000000     0.396305000000     0.595880000000    -0.14565    
O23      O      0.654975000000     0.896305000000     0.095880000000    -0.14565    
O23      O      0.654975000000     0.896305000000     0.595880000000    -0.14565    
O23      O      0.904975000000     0.396305000000     0.095880000000    -0.14565    
O23      O      0.904975000000     0.396305000000     0.595880000000    -0.14565    
O23      O      0.904975000000     0.896305000000     0.095880000000    -0.14565    
O23      O      0.904975000000     0.896305000000     0.595880000000    -0.14565    
O24      O      0.166425000000     0.013955000000     0.464755000000    -0.108226   
O24      O      0.166425000000     0.013955000000     0.964755000000    -0.108226   
O24      O      0.166425000000     0.513955000000     0.464755000000    -0.108226   
O24      O      0.166425000000     0.513955000000     0.964755000000    -0.108226   
O24      O      0.416425000000     0.013955000000     0.464755000000    -0.108226   
O24      O      0.416425000000     0.013955000000     0.964755000000    -0.108226   
O24      O      0.416425000000     0.513955000000     0.464755000000    -0.108226   
O24      O      0.416425000000     0.513955000000     0.964755000000    -0.108226   
O24      O      0.666425000000     0.013955000000     0.464755000000    -0.108226   
O24      O      0.666425000000     0.013955000000     0.964755000000    -0.108226   
O24      O      0.666425000000     0.513955000000     0.464755000000    -0.108226   
O24      O      0.666425000000     0.513955000000     0.964755000000    -0.108226   
O24      O      0.916425000000     0.013955000000     0.464755000000    -0.108226   
O24      O      0.916425000000     0.013955000000     0.964755000000    -0.108226   
O24      O      0.916425000000     0.513955000000     0.464755000000    -0.108226   
O24      O      0.916425000000     0.513955000000     0.964755000000    -0.108226   
Zn1      Zn     0.125000000000     0.000000000000     0.000000000000    -0.216646   
Zn1      Zn     0.125000000000     0.000000000000     0.500000000000    -0.216646   
Zn1      Zn     0.125000000000     0.500000000000     0.000000000000    -0.216646   
Zn1      Zn     0.125000000000     0.500000000000     0.500000000000    -0.216646   
Zn1      Zn     0.375000000000     0.000000000000     0.000000000000    -0.216646   
Zn1      Zn     0.375000000000     0.000000000000     0.500000000000    -0.216646   
Zn1      Zn     0.375000000000     0.500000000000     0.000000000000    -0.216646   
Zn1      Zn     0.375000000000     0.500000000000     0.500000000000    -0.216646   
Zn1      Zn     0.625000000000     0.000000000000     0.000000000000    -0.216646   
Zn1      Zn     0.625000000000     0.000000000000     0.500000000000    -0.216646   
Zn1      Zn     0.625000000000     0.500000000000     0.000000000000    -0.216646   
Zn1      Zn     0.625000000000     0.500000000000     0.500000000000    -0.216646   
Zn1      Zn     0.875000000000     0.000000000000     0.000000000000    -0.216646   
Zn1      Zn     0.875000000000     0.000000000000     0.500000000000    -0.216646   
Zn1      Zn     0.875000000000     0.500000000000     0.000000000000    -0.216646   
Zn1      Zn     0.875000000000     0.500000000000     0.500000000000    -0.216646   
Zn2      Zn     0.000000000000     0.000000000000     0.250000000000    -0.121861   
Zn2      Zn     0.000000000000     0.000000000000     0.750000000000    -0.121861   
Zn2      Zn     0.000000000000     0.500000000000     0.250000000000    -0.121861   
Zn2      Zn     0.000000000000     0.500000000000     0.750000000000    -0.121861   
Zn2      Zn     0.250000000000     0.000000000000     0.250000000000    -0.121861   
Zn2      Zn     0.250000000000     0.000000000000     0.750000000000    -0.121861   
Zn2      Zn     0.250000000000     0.500000000000     0.250000000000    -0.121861   
Zn2      Zn     0.250000000000     0.500000000000     0.750000000000    -0.121861   
Zn2      Zn     0.500000000000     0.000000000000     0.250000000000    -0.121861   
Zn2      Zn     0.500000000000     0.000000000000     0.750000000000    -0.121861   
Zn2      Zn     0.500000000000     0.500000000000     0.250000000000    -0.121861   
Zn2      Zn     0.500000000000     0.500000000000     0.750000000000    -0.121861   
Zn2      Zn     0.750000000000     0.000000000000     0.250000000000    -0.121861   
Zn2      Zn     0.750000000000     0.000000000000     0.750000000000    -0.121861   
Zn2      Zn     0.750000000000     0.500000000000     0.250000000000    -0.121861   
Zn2      Zn     0.750000000000     0.500000000000     0.750000000000    -0.121861   
Zn3      Zn     0.125000000000     0.250000000000     0.000000000000    -0.266081   
Zn3      Zn     0.125000000000     0.250000000000     0.500000000000    -0.266081   
Zn3      Zn     0.125000000000     0.750000000000     0.000000000000    -0.266081   
Zn3      Zn     0.125000000000     0.750000000000     0.500000000000    -0.266081   
Zn3      Zn     0.375000000000     0.250000000000     0.000000000000    -0.266081   
Zn3      Zn     0.375000000000     0.250000000000     0.500000000000    -0.266081   
Zn3      Zn     0.375000000000     0.750000000000     0.000000000000    -0.266081   
Zn3      Zn     0.375000000000     0.750000000000     0.500000000000    -0.266081   
Zn3      Zn     0.625000000000     0.250000000000     0.000000000000    -0.266081   
Zn3      Zn     0.625000000000     0.250000000000     0.500000000000    -0.266081   
Zn3      Zn     0.625000000000     0.750000000000     0.000000000000    -0.266081   
Zn3      Zn     0.625000000000     0.750000000000     0.500000000000    -0.266081   
Zn3      Zn     0.875000000000     0.250000000000     0.000000000000    -0.266081   
Zn3      Zn     0.875000000000     0.250000000000     0.500000000000    -0.266081   
Zn3      Zn     0.875000000000     0.750000000000     0.000000000000    -0.266081   
Zn3      Zn     0.875000000000     0.750000000000     0.500000000000    -0.266081   


